version 2
run testDelay-0-20211021-09:40:58-5065
attr configname testDelay
attr datetime 20211021-09:40:58
attr experiment testDelay
attr inifile CEBModule.ini
attr iterationvars "$waitTime=0.5, $nCars=7, $platoonSize=7, $nLanes=1, $humanCars=4, $humanLanes=3, $caccSpacing=5.0, $ploegH=0.3, $leaderHeadway=1.2, $leaderSpeed=100, $beaconInterval=0.1, $priority=4, $packetSize=200"
attr iterationvarsf waitTime=0.5,nCars=7,platoonSize=7,nLanes=1,humanCars=4,humanLanes=3,caccSpacing=5.0,ploegH=0.3,leaderHeadway=1.2,leaderSpeed=100,beaconInterval=0.1,priority=4,packetSize=200-
attr measurement "$waitTime=0.5, $nCars=7, $platoonSize=7, $nLanes=1, $humanCars=4, $humanLanes=3, $caccSpacing=5.0, $ploegH=0.3, $leaderHeadway=1.2, $leaderSpeed=100, $beaconInterval=0.1, $priority=4, $packetSize=200"
attr network Highway
attr processid 5065
attr repetition 0
attr replication #0
attr resultdir results
attr runnumber 0
attr seedset 0
itervar beaconInterval 0.1
itervar caccSpacing 5.0
itervar humanCars 4
itervar humanLanes 3
itervar leaderHeadway 1.2
itervar leaderSpeed 100
itervar nCars 7
itervar nLanes 1
itervar packetSize 200
itervar platoonSize 7
itervar ploegH 0.3
itervar priority 4
itervar waitTime 0.5
param *.manager.useGui false
param *.node[*].scenario_type "\"BrakingScenario\""
param *.node[*].prot.isRelayEnabled true
param *.node[*].runtimeManager.rmEnabled false
param *.node[*].prot.isCoopEmBrkEnabled true
param *.node[*].prot.isESynchBrkEnabled true
param *.node[*].prot.decelarationRate "7 mpsps"
param *.node[*].prot.softDecelRate "3 mpsps"
param *.node[*].prot.brakeAtTime 60s
param *.node[*].prot.speedOfLeader 100kmph
param *.node[*].prot.sbWaitTime "0.5 s"
param *.node[*].prot.DENMInterval 0.1s
param *.node[*].prot.actuationLag 0s
param *.node[*].scenario.leaderOscillationFrequency "0.2 Hz"
param *.playgroundSizeX 65000m
param *.playgroundSizeY 25000m
param *.playgroundSizeZ 50m
param **.debug false
param **.coreDebug false
param *.annotations.draw false
param *.obstacles.debug false
param *.world.useTorus false
param *.world.use2D false
param *.manager.updateInterval 0.01s
param *.manager.host "\"localhost\""
param *.manager.moduleType "\"vtypeauto=org.car2x.veins.modules.application.platooning.PlatoonCar vtypehuman=HumanCar\""
param *.manager.moduleName "\"vtypeauto=node vtypehuman=human\""
param *.manager.moduleDisplayString "\"\""
param *.manager.autoShutdown true
param *.manager.margin 25
param *.connectionManager.sendDirect true
param *.connectionManager.maxInterfDist 2600m
param *.connectionManager.drawMaxIntfDist false
param *.**.nic.mac1609_4.useServiceChannel false
param *.**.nic.mac1609_4.txPower 100mW
param *.**.nic.mac1609_4.bitrate 6Mbps
param *.**.nic.phy80211p.sensitivity -94dBm
param *.**.nic.phy80211p.maxTXPower 100mW
param *.**.nic.phy80211p.useThermalNoise true
param *.**.nic.phy80211p.thermalNoise -95dBm
param *.**.nic.phy80211p.decider "xmldoc(\"config.xml\")"
param *.**.nic.phy80211p.analogueModels "xmldoc(\"config.xml\")"
param *.**.nic.phy80211p.usePropagationDelay true
param *.node[*].mobility.x 0
param *.node[*].mobility.y 0
param *.node[*].mobility.z 1.895
param *.human[*].mobility.x 0
param *.human[*].mobility.y 0
param *.human[*].mobility.z 1.895
param **.seed 0
param *.manager.configFile "\"./sumocfg/freeway.sumo.cfg\""
param *.node[*].scenario.vehicleFile "\"./sumocfg/vehicles.xml\""
param **.numberOfCars 7
param **.numberOfCarsPerPlatoon 7
param **.numberOfLanes 1
param **.numberOfHumanCars 4
param **.numberOfHumanLanes 3
param *.node[*].helper_type "\"PositionHelper\""
param *.node[*].helper.nLanes 1
param *.node[*].helper.platoonSize 7
param *.node[*].helper.nCars 7
param *.node[*].scenario.caccSpacing 5.0m
param *.node[*].scenario.caccC1 0.5
param *.node[*].scenario.caccXi 1
param *.node[*].scenario.caccOmegaN "0.2 Hz"
param *.node[*].scenario.engineTau "0.5 s"
param *.node[*].scenario.ploegH 0.3s
param *.node[*].scenario.ploegKp 0.2
param *.node[*].scenario.ploegKd 0.7
param *.node[*].scenario.useRealisticEngine false
param **.numericController 1
param *.node[*].scenario.controller "\"CACC\""
param **.headway 0.3s
param *.node[*].scenario.accHeadway 0.3s
param *.node[*].scenario.leaderHeadway 1.2s
param *.node[*].scenario.leaderSpeed 100kmph
param *.node[*].appl_type "\"SimplePlatooningApp\""
param *.node[*].protocol_type "\"SimplePlatooningBeaconing\""
param *.node[*].prot.beaconingInterval 0.1s
param *.node[*].prot.priority 4
param *.node[*].prot.packetSize 200
param *.node[*].prot.ackPacketSize 50
param *.node[*].prot.useControllerAcceleration true
param *.node[*].unicast.packetLossRate 0.0
param *.human[*].prot.beaconingInterval ".02 s"
param *.human[*].prot.priority 4
param *.human[*].prot.packetSize 200
param *.human[*].prot.txPower "100 mW"
param *.human[*].prot.bitrate "3 Mbps"
param **.traffic_type "\"PlatoonsPlusHumanTraffic\""
param **.traffic.platoonInsertTime "1 s"
param **.traffic.humanInsertTime "50 s"
param **.traffic.platoonInsertSpeed 100kmph
param **.traffic.nCars 7
param **.traffic.humanCars 4
param **.traffic.platoonSize 7
param **.traffic.nLanes 1
param **.traffic.humanLanes 3
param **.traffic.platooningVType "\"vtypeauto\""
param **.traffic.humanVType "\"vtypehuman\""
param **.traffic.platoonInsertDistance 5.0m
param **.traffic.platoonInsertHeadway 0s
param **.traffic.platoonLeaderHeadway 1.2s

vector 0 Highway.node[0].appl distance ETV
vector 1 Highway.node[0].appl relativeSpeed ETV
vector 2 Highway.node[0].appl nodeId ETV
vector 3 Highway.node[0].appl acceleration ETV
vector 4 Highway.node[0].appl controllerAcceleration ETV
vector 5 Highway.node[0].appl speed ETV
vector 6 Highway.node[0].appl posx ETV
vector 7 Highway.node[0].appl posy ETV
vector 8 Highway.node[1].appl distance ETV
vector 9 Highway.node[1].appl relativeSpeed ETV
vector 10 Highway.node[1].appl nodeId ETV
vector 11 Highway.node[1].appl acceleration ETV
vector 12 Highway.node[1].appl controllerAcceleration ETV
vector 13 Highway.node[1].appl speed ETV
vector 14 Highway.node[1].appl posx ETV
vector 15 Highway.node[1].appl posy ETV
vector 16 Highway.node[2].appl distance ETV
vector 17 Highway.node[2].appl relativeSpeed ETV
vector 18 Highway.node[2].appl nodeId ETV
vector 19 Highway.node[2].appl acceleration ETV
vector 20 Highway.node[2].appl controllerAcceleration ETV
vector 21 Highway.node[2].appl speed ETV
vector 22 Highway.node[2].appl posx ETV
vector 23 Highway.node[2].appl posy ETV
vector 24 Highway.node[3].appl distance ETV
vector 25 Highway.node[3].appl relativeSpeed ETV
vector 26 Highway.node[3].appl nodeId ETV
vector 27 Highway.node[3].appl acceleration ETV
vector 28 Highway.node[3].appl controllerAcceleration ETV
vector 29 Highway.node[3].appl speed ETV
vector 30 Highway.node[3].appl posx ETV
vector 31 Highway.node[3].appl posy ETV
vector 32 Highway.node[4].appl distance ETV
vector 33 Highway.node[4].appl relativeSpeed ETV
vector 34 Highway.node[4].appl nodeId ETV
vector 35 Highway.node[4].appl acceleration ETV
vector 36 Highway.node[4].appl controllerAcceleration ETV
vector 37 Highway.node[4].appl speed ETV
vector 38 Highway.node[4].appl posx ETV
vector 39 Highway.node[4].appl posy ETV
vector 40 Highway.node[5].appl distance ETV
vector 41 Highway.node[5].appl relativeSpeed ETV
vector 42 Highway.node[5].appl nodeId ETV
vector 43 Highway.node[5].appl acceleration ETV
vector 44 Highway.node[5].appl controllerAcceleration ETV
vector 45 Highway.node[5].appl speed ETV
vector 46 Highway.node[5].appl posx ETV
vector 47 Highway.node[5].appl posy ETV
vector 48 Highway.node[6].appl distance ETV
vector 49 Highway.node[6].appl relativeSpeed ETV
vector 50 Highway.node[6].appl nodeId ETV
vector 51 Highway.node[6].appl acceleration ETV
vector 52 Highway.node[6].appl controllerAcceleration ETV
vector 53 Highway.node[6].appl speed ETV
vector 54 Highway.node[6].appl posx ETV
vector 55 Highway.node[6].appl posy ETV
vector 56 Highway.node[3].prot frontDelay ETV
vector 57 Highway.node[3].prot frontDelayId ETV
vector 58 Highway.node[3].prot frontTransmissionN ETV
vector 59 Highway.node[2].prot frontDelay ETV
vector 60 Highway.node[2].prot frontDelayId ETV
vector 61 Highway.node[2].prot frontTransmissionN ETV
vector 62 Highway.node[1].prot leaderDelay ETV
vector 63 Highway.node[1].prot leaderDelayId ETV
vector 64 Highway.node[1].prot leaderTransmissionN ETV
vector 65 Highway.node[1].prot frontDelay ETV
vector 66 Highway.node[1].prot frontDelayId ETV
vector 67 Highway.node[1].prot frontTransmissionN ETV
vector 68 Highway.node[2].prot leaderDelay ETV
vector 69 Highway.node[2].prot leaderDelayId ETV
vector 70 Highway.node[2].prot leaderTransmissionN ETV
vector 71 Highway.node[3].prot leaderDelay ETV
vector 72 Highway.node[3].prot leaderDelayId ETV
vector 73 Highway.node[3].prot leaderTransmissionN ETV
vector 74 Highway.node[4].prot leaderDelay ETV
vector 75 Highway.node[4].prot leaderDelayId ETV
vector 76 Highway.node[4].prot leaderTransmissionN ETV
vector 77 Highway.node[5].prot leaderDelay ETV
vector 78 Highway.node[5].prot leaderDelayId ETV
vector 79 Highway.node[5].prot leaderTransmissionN ETV
vector 80 Highway.node[6].prot leaderDelay ETV
vector 81 Highway.node[6].prot leaderDelayId ETV
vector 82 Highway.node[6].prot leaderTransmissionN ETV
vector 83 Highway.node[5].prot frontDelay ETV
vector 84 Highway.node[5].prot frontDelayId ETV
vector 85 Highway.node[5].prot frontTransmissionN ETV
vector 86 Highway.node[4].prot frontDelay ETV
vector 87 Highway.node[4].prot frontDelayId ETV
vector 88 Highway.node[4].prot frontTransmissionN ETV
vector 89 Highway.node[6].prot frontDelay ETV
vector 90 Highway.node[6].prot frontDelayId ETV
vector 91 Highway.node[6].prot frontTransmissionN ETV
vector 92 Highway.node[0].prot nodeId ETV
vector 93 Highway.node[0].prot busyTime ETV
vector 94 Highway.node[0].prot collisions ETV
vector 95 Highway.node[1].prot nodeId ETV
vector 96 Highway.node[1].prot busyTime ETV
vector 97 Highway.node[1].prot collisions ETV
vector 98 Highway.node[2].prot nodeId ETV
vector 99 Highway.node[2].prot busyTime ETV
vector 100 Highway.node[2].prot collisions ETV
vector 101 Highway.node[3].prot nodeId ETV
vector 102 Highway.node[3].prot busyTime ETV
vector 103 Highway.node[3].prot collisions ETV
vector 104 Highway.node[4].prot nodeId ETV
vector 105 Highway.node[4].prot busyTime ETV
vector 106 Highway.node[4].prot collisions ETV
vector 107 Highway.node[5].prot nodeId ETV
vector 108 Highway.node[5].prot busyTime ETV
vector 109 Highway.node[5].prot collisions ETV
vector 110 Highway.node[6].prot nodeId ETV
vector 111 Highway.node[6].prot busyTime ETV
vector 112 Highway.node[6].prot collisions ETV
vector 113 Highway.node[1].prot firstDENMDelay ETV
vector 114 Highway.node[1].prot noOfRetransmissions ETV
vector 115 Highway.node[2].prot firstDENMDelay ETV
vector 116 Highway.node[2].prot noOfRetransmissions ETV
vector 117 Highway.node[3].prot firstDENMDelay ETV
vector 118 Highway.node[3].prot noOfRetransmissions ETV
vector 119 Highway.node[4].prot firstDENMDelay ETV
vector 120 Highway.node[4].prot noOfRetransmissions ETV
vector 121 Highway.node[5].prot firstDENMDelay ETV
vector 122 Highway.node[5].prot noOfRetransmissions ETV
vector 123 Highway.node[6].prot firstDENMDelay ETV
vector 124 Highway.node[6].prot noOfRetransmissions ETV
vector 125 Highway.node[0].prot firstDENMDelay ETV
vector 126 Highway.node[0].prot noOfRetransmissions ETV
4	232	1.11	-0.00218518
4	666	1.21	-0.00213419
4	1099	1.31	-0.00205408
4	1533	1.41	-0.00195152
4	1967	1.51	-0.00183238
4	2400	1.61	-0.00170178
4	2833	1.71	-0.00156412
4	3267	1.81	-0.00142314
4	3700	1.91	-0.00128196
4	4142	2.01	-0.00114315
4	4575	2.11	-0.00100877
4	5008	2.21	-0.000880447
4	5441	2.31	-0.000759381
4	5874	2.41	-0.000646445
4	6307	2.51	-0.000542204
4	6740	2.61	-0.000446965
4	7173	2.71	-0.000360819
4	7606	2.81	-0.000283678
4	8039	2.91	-0.000215307
4	8479	3.01	-0.000155357
4	8912	3.11	-0.000103391
4	9345	3.21	-5.89069e-05
4	9778	3.31	-2.13575e-05
4	10211	3.41	9.82919e-06
4	10644	3.51	3.52368e-05
4	11077	3.61	5.54479e-05
4	11510	3.71	7.10335e-05
4	11943	3.81	8.25451e-05
4	12376	3.91	9.05081e-05
4	12816	4.01	9.54172e-05
4	13249	4.11	9.7733e-05
4	13682	4.21	9.78798e-05
4	14115	4.31	9.62447e-05
4	14548	4.41	9.31771e-05
4	14981	4.51	8.89894e-05
4	15414	4.61	8.39579e-05
4	15847	4.71	7.83245e-05
4	16280	4.81	7.22983e-05
4	16713	4.91	6.6058e-05
4	17153	5.01	5.9754e-05
4	17586	5.11	5.35107e-05
4	18019	5.21	4.74294e-05
4	18452	5.31	4.15898e-05
4	18885	5.41	3.60534e-05
4	19318	5.51	3.0865e-05
4	19751	5.61	2.60551e-05
4	20184	5.71	2.16419e-05
4	20617	5.81	1.76335e-05
4	21050	5.91	1.40289e-05
4	21490	6.01	1.08202e-05
4	21923	6.11	7.99392e-06
4	22356	6.21	5.532e-06
4	22789	6.31	3.41315e-06
4	23222	6.41	1.61374e-06
4	23655	6.51	1.08654e-07
4	24088	6.61	-1.12799e-06
4	24521	6.71	-2.12224e-06
4	24954	6.81	-2.89981e-06
4	25387	6.91	-3.48567e-06
4	25827	7.01	-3.90376e-06
4	26260	7.11	-4.17673e-06
4	26693	7.21	-4.32574e-06
4	27126	7.31	-4.3704e-06
4	27559	7.41	-4.32865e-06
4	27992	7.51	-4.21676e-06
4	28425	7.61	-4.04934e-06
4	28858	7.71	-3.83937e-06
4	29291	7.81	-3.59826e-06
4	29724	7.91	-3.33592e-06
4	30164	8.01	-3.06089e-06
4	30597	8.11	-2.78036e-06
4	31030	8.21	-2.50036e-06
4	31463	8.31	-2.22582e-06
4	31896	8.41	-1.96068e-06
4	32329	8.51	-1.708e-06
4	32762	8.61	-1.47009e-06
4	33195	8.71	-1.24855e-06
4	33628	8.81	-1.04441e-06
4	34061	8.91	-8.58219e-07
4	34501	9.01	-6.90082e-07
4	34934	9.11	-5.39774e-07
4	35367	9.21	-4.06787e-07
4	35800	9.31	-2.90396e-07
4	36233	9.41	-1.89707e-07
4	36666	9.51	-1.03704e-07
4	37099	9.61	-3.12909e-08
4	37532	9.71	2.86736e-08
4	37965	9.81	7.73515e-08
4	38398	9.91	1.15897e-07
4	38838	10.01	1.45439e-07
4	39271	10.11	1.67065e-07
4	39704	10.21	1.81809e-07
4	40137	10.31	1.90644e-07
4	40570	10.41	1.94472e-07
4	41003	10.51	1.94125e-07
4	41436	10.61	1.90358e-07
4	41869	10.71	1.83853e-07
4	42302	10.81	1.75219e-07
4	42735	10.91	1.64994e-07
4	43175	11.01	1.53647e-07
4	43608	11.11	1.41582e-07
4	44041	11.21	1.29146e-07
4	44474	11.31	1.16627e-07
4	44907	11.41	1.04266e-07
4	45340	11.51	9.22547e-08
4	45773	11.61	8.07471e-08
4	46206	11.71	6.98584e-08
4	46639	11.81	5.96732e-08
4	47072	11.91	5.02471e-08
4	47512	12.01	4.16133e-08
4	47945	12.11	3.37845e-08
4	48378	12.21	2.67558e-08
4	48811	12.31	2.05102e-08
4	49244	12.41	1.50187e-08
4	49677	12.51	1.02442e-08
4	50110	12.61	6.14406e-09
4	50543	12.71	2.67022e-09
4	50976	12.81	-2.27374e-10
4	51409	12.91	-2.60059e-09
4	51849	13.01	-4.50058e-09
4	52282	13.11	-5.97851e-09
4	52715	13.21	-7.08376e-09
4	53148	13.31	-7.86322e-09
4	53581	13.41	-8.36167e-09
4	54014	13.51	-8.62066e-09
4	54447	13.61	-8.67857e-09
4	54880	13.71	-8.57057e-09
4	55313	13.81	-8.32792e-09
4	55746	13.91	-7.97975e-09
4	56186	14.01	-7.55058e-09
4	56619	14.11	-7.06351e-09
4	57052	14.21	-6.53699e-09
4	57485	14.31	-5.98774e-09
4	57918	14.41	-5.42997e-09
4	58351	14.51	-4.87468e-09
4	58784	14.61	-4.33182e-09
4	59217	14.71	-3.80886e-09
4	59650	14.81	-3.31148e-09
4	60083	14.91	-2.84395e-09
4	60523	15.01	-2.40981e-09
4	60956	15.11	-2.01013e-09
4	61389	15.21	-1.64633e-09
4	61822	15.31	-1.31806e-09
4	62255	15.41	-1.02531e-09
4	62688	15.51	-7.66676e-10
4	63121	15.61	-5.40723e-10
4	63554	15.71	-3.46034e-10
4	63987	15.81	-1.79767e-10
4	64420	15.91	-4.01457e-11
4	64860	16.01	7.49623e-11
4	65293	16.11	1.68043e-10
4	65726	16.21	2.41585e-10
4	66159	16.31	2.97362e-10
4	66592	16.41	3.37863e-10
4	67025	16.51	3.64864e-10
4	67458	16.61	3.80851e-10
4	67891	16.71	3.86891e-10
4	68324	16.81	3.84759e-10
4	68757	16.91	3.76232e-10
4	69197	17.01	3.62377e-10
4	69630	17.11	3.44613e-10
4	70063	17.21	3.24007e-10
4	70496	17.31	3.00915e-10
4	70929	17.41	2.76756e-10
4	71362	17.51	2.52243e-10
4	71795	17.61	2.27374e-10
4	72228	17.71	2.0286e-10
4	72661	17.81	1.79057e-10
4	73094	17.91	1.56319e-10
4	73534	18.01	1.35003e-10
4	73967	18.11	1.15108e-10
4	74400	18.21	9.66338e-11
4	74833	18.31	7.99361e-11
4	75266	18.41	6.46594e-11
4	75699	18.51	5.08038e-11
4	76132	18.61	3.83693e-11
4	76565	18.71	2.73559e-11
4	76998	18.81	1.77636e-11
4	77431	18.91	9.59233e-12
4	77871	19.01	2.84217e-12
4	78304	19.11	-2.84217e-12
4	78737	19.21	-7.4607e-12
4	79170	19.31	-1.13687e-11
4	79603	19.41	-1.42109e-11
4	80036	19.51	-1.63425e-11
4	80469	19.61	-1.77636e-11
4	80902	19.71	-1.84741e-11
4	81335	19.81	-1.88294e-11
4	81768	19.91	-1.88294e-11
4	82208	20.01	-1.88294e-11
4	82641	20.11	-1.81188e-11
4	83074	20.21	-1.7053e-11
4	83507	20.31	-1.63425e-11
4	83940	20.41	-1.52767e-11
4	84373	20.51	-1.45661e-11
4	84806	20.61	-1.35003e-11
4	85239	20.71	-1.27898e-11
4	85672	20.81	-1.1724e-11
4	86105	20.91	-1.10134e-11
4	86545	21.01	-9.9476e-12
4	86978	21.11	-9.23706e-12
4	87411	21.21	-8.17124e-12
4	87844	21.31	-7.4607e-12
4	88277	21.41	-6.39488e-12
4	88710	21.51	-5.68434e-12
4	89143	21.61	-4.61853e-12
4	89576	21.71	-3.90799e-12
4	90009	21.81	-2.84217e-12
4	90442	21.91	-2.13163e-12
4	90882	22.01	-1.06581e-12
4	91315	22.11	-3.55271e-13
4	91748	22.21	7.10543e-13
4	92181	22.31	1.42109e-12
4	92614	22.41	2.13163e-12
4	93047	22.51	2.84217e-12
4	93480	22.61	3.19744e-12
4	93913	22.71	3.90799e-12
4	94346	22.81	4.26326e-12
4	94779	22.91	4.61853e-12
4	95219	23.01	5.32907e-12
4	95652	23.11	5.68434e-12
4	96085	23.21	5.68434e-12
4	96518	23.31	6.03961e-12
4	96951	23.41	6.39488e-12
4	97384	23.51	6.75016e-12
4	97817	23.61	6.75016e-12
4	98250	23.71	7.10543e-12
4	98683	23.81	7.10543e-12
4	99116	23.91	7.4607e-12
4	99556	24.01	7.4607e-12
4	99989	24.11	7.81597e-12
4	100422	24.21	7.81597e-12
4	100855	24.31	7.81597e-12
4	101288	24.41	7.81597e-12
4	101721	24.51	8.17124e-12
4	102154	24.61	8.17124e-12
4	102587	24.71	8.17124e-12
4	103020	24.81	8.17124e-12
4	103453	24.91	8.17124e-12
4	103893	25.01	8.52651e-12
4	104326	25.11	8.52651e-12
4	104759	25.21	8.52651e-12
4	105192	25.31	8.52651e-12
4	105625	25.41	8.52651e-12
4	106058	25.51	8.52651e-12
4	106491	25.61	8.52651e-12
4	106924	25.71	8.52651e-12
4	107357	25.81	8.52651e-12
4	107790	25.91	8.52651e-12
4	108230	26.01	8.88178e-12
4	108663	26.11	8.88178e-12
4	109096	26.21	8.88178e-12
4	109529	26.31	8.88178e-12
4	109962	26.41	8.88178e-12
4	110395	26.51	8.88178e-12
4	110828	26.61	8.88178e-12
4	111261	26.71	8.88178e-12
4	111694	26.81	8.88178e-12
4	112127	26.91	8.88178e-12
4	112567	27.01	8.88178e-12
4	113000	27.11	8.88178e-12
4	113433	27.21	8.88178e-12
4	113866	27.31	8.88178e-12
4	114299	27.41	8.88178e-12
4	114732	27.51	8.88178e-12
4	115165	27.61	8.88178e-12
4	115598	27.71	8.88178e-12
4	116031	27.81	8.88178e-12
4	116464	27.91	8.88178e-12
4	116904	28.01	8.88178e-12
4	117337	28.11	8.88178e-12
4	117770	28.21	8.88178e-12
4	118203	28.31	8.88178e-12
4	118636	28.41	8.88178e-12
4	119069	28.51	8.88178e-12
4	119502	28.61	8.88178e-12
4	119935	28.71	8.88178e-12
4	120368	28.81	8.88178e-12
4	120801	28.91	8.88178e-12
4	121241	29.01	8.88178e-12
4	121674	29.11	8.88178e-12
4	122107	29.21	8.88178e-12
4	122540	29.31	8.88178e-12
4	122973	29.41	8.88178e-12
4	123406	29.51	8.88178e-12
4	123839	29.61	8.88178e-12
4	124272	29.71	8.88178e-12
4	124705	29.81	8.88178e-12
4	125138	29.91	8.88178e-12
4	125578	30.01	8.88178e-12
4	126011	30.11	8.88178e-12
4	126444	30.21	8.88178e-12
4	126877	30.31	8.88178e-12
4	127310	30.41	8.88178e-12
4	127743	30.51	8.88178e-12
4	128176	30.61	8.88178e-12
4	128609	30.71	8.88178e-12
4	129042	30.81	8.88178e-12
4	129475	30.91	8.88178e-12
4	129915	31.01	8.88178e-12
4	130348	31.11	8.88178e-12
4	130781	31.21	8.88178e-12
4	131214	31.31	8.88178e-12
4	131647	31.41	8.88178e-12
4	132080	31.51	8.88178e-12
4	132513	31.61	8.88178e-12
4	132946	31.71	8.88178e-12
4	133379	31.81	8.88178e-12
4	133812	31.91	8.88178e-12
4	134252	32.01	8.88178e-12
4	134685	32.11	8.88178e-12
4	135118	32.21	8.88178e-12
4	135551	32.31	8.88178e-12
4	135984	32.41	8.88178e-12
4	136417	32.51	8.88178e-12
4	136850	32.61	8.88178e-12
4	137283	32.71	8.88178e-12
4	137716	32.81	8.88178e-12
4	138149	32.91	8.88178e-12
4	138589	33.01	8.88178e-12
4	139022	33.11	8.88178e-12
4	139455	33.21	8.88178e-12
4	139888	33.31	8.88178e-12
4	140321	33.41	8.88178e-12
4	140754	33.51	8.88178e-12
4	141187	33.61	8.88178e-12
4	141620	33.71	8.88178e-12
4	142053	33.81	8.88178e-12
4	142486	33.91	8.88178e-12
4	142926	34.01	8.88178e-12
4	143359	34.11	8.88178e-12
4	143792	34.21	8.88178e-12
4	144225	34.31	8.88178e-12
4	144658	34.41	8.88178e-12
4	145091	34.51	8.88178e-12
4	145524	34.61	8.88178e-12
4	145957	34.71	8.88178e-12
4	146390	34.81	8.88178e-12
4	146823	34.91	8.88178e-12
4	147263	35.01	8.88178e-12
4	147696	35.11	8.88178e-12
4	148129	35.21	8.88178e-12
4	148562	35.31	8.88178e-12
4	148995	35.41	8.88178e-12
4	149428	35.51	8.88178e-12
4	149861	35.61	8.88178e-12
4	150294	35.71	8.88178e-12
4	150727	35.81	8.88178e-12
4	151160	35.91	8.88178e-12
4	151600	36.01	8.88178e-12
4	152033	36.11	8.88178e-12
4	152466	36.21	8.88178e-12
4	152899	36.31	8.88178e-12
4	153332	36.41	8.88178e-12
4	153765	36.51	8.88178e-12
4	154198	36.61	8.88178e-12
4	154631	36.71	8.88178e-12
4	155064	36.81	8.88178e-12
4	155497	36.91	8.88178e-12
4	155937	37.01	8.88178e-12
4	156370	37.11	8.88178e-12
4	156803	37.21	8.88178e-12
4	157236	37.31	8.88178e-12
4	157669	37.41	8.88178e-12
4	158102	37.51	8.88178e-12
4	158535	37.61	8.88178e-12
4	158968	37.71	8.88178e-12
4	159401	37.81	8.88178e-12
4	159834	37.91	8.88178e-12
4	160274	38.01	8.88178e-12
4	160707	38.11	8.88178e-12
4	161140	38.21	8.88178e-12
4	161573	38.31	8.88178e-12
4	162006	38.41	8.88178e-12
4	162439	38.51	8.88178e-12
4	162872	38.61	8.88178e-12
4	163305	38.71	8.88178e-12
4	163738	38.81	8.88178e-12
4	164171	38.91	8.88178e-12
4	164611	39.01	8.88178e-12
4	165044	39.11	8.88178e-12
4	165477	39.21	8.88178e-12
4	165910	39.31	8.88178e-12
4	166343	39.41	8.88178e-12
4	166776	39.51	8.88178e-12
4	167209	39.61	8.88178e-12
4	167642	39.71	8.88178e-12
4	168075	39.81	8.88178e-12
4	168508	39.91	8.88178e-12
4	168948	40.01	8.88178e-12
4	169381	40.11	8.88178e-12
4	169814	40.21	8.88178e-12
4	170247	40.31	8.88178e-12
4	170680	40.41	8.88178e-12
4	171113	40.51	8.88178e-12
4	171546	40.61	8.88178e-12
4	171979	40.71	8.88178e-12
4	172412	40.81	8.88178e-12
4	172845	40.91	8.88178e-12
4	173285	41.01	8.88178e-12
4	173718	41.11	8.88178e-12
4	174151	41.21	8.88178e-12
4	174584	41.31	8.88178e-12
4	175017	41.41	8.88178e-12
4	175450	41.51	8.88178e-12
4	175883	41.61	8.88178e-12
4	176316	41.71	8.88178e-12
4	176749	41.81	8.88178e-12
4	177182	41.91	8.88178e-12
4	177622	42.01	8.88178e-12
4	178055	42.11	8.88178e-12
4	178488	42.21	8.88178e-12
4	178921	42.31	8.88178e-12
4	179354	42.41	8.88178e-12
4	179787	42.51	8.88178e-12
4	180220	42.61	8.88178e-12
4	180653	42.71	8.88178e-12
4	181086	42.81	8.88178e-12
4	181519	42.91	8.88178e-12
4	181959	43.01	8.88178e-12
4	182392	43.11	8.88178e-12
4	182825	43.21	8.88178e-12
4	183258	43.31	8.88178e-12
4	183691	43.41	8.88178e-12
4	184124	43.51	8.88178e-12
4	184557	43.61	8.88178e-12
4	184990	43.71	8.88178e-12
4	185423	43.81	8.88178e-12
4	185856	43.91	8.88178e-12
4	186296	44.01	8.88178e-12
4	186729	44.11	8.88178e-12
4	187162	44.21	8.88178e-12
4	187595	44.31	8.88178e-12
4	188028	44.41	8.88178e-12
4	188461	44.51	8.88178e-12
4	188894	44.61	8.88178e-12
4	189327	44.71	8.88178e-12
4	189760	44.81	8.88178e-12
4	190193	44.91	8.88178e-12
4	190633	45.01	8.88178e-12
4	191066	45.11	8.88178e-12
4	191499	45.21	8.88178e-12
4	191932	45.31	8.88178e-12
4	192365	45.41	8.88178e-12
4	192798	45.51	8.88178e-12
4	193231	45.61	8.88178e-12
4	193664	45.71	8.88178e-12
4	194097	45.81	8.88178e-12
4	194530	45.91	8.88178e-12
4	194970	46.01	8.88178e-12
4	195403	46.11	8.88178e-12
4	195836	46.21	8.88178e-12
4	196269	46.31	8.88178e-12
4	196702	46.41	8.88178e-12
4	197135	46.51	8.88178e-12
4	197568	46.61	8.88178e-12
4	198001	46.71	8.88178e-12
4	198434	46.81	8.88178e-12
4	198867	46.91	8.88178e-12
4	199307	47.01	8.88178e-12
4	199740	47.11	8.88178e-12
4	200173	47.21	8.88178e-12
4	200606	47.31	8.88178e-12
4	201039	47.41	8.88178e-12
4	201472	47.51	8.88178e-12
4	201905	47.61	8.88178e-12
4	202338	47.71	8.88178e-12
4	202771	47.81	8.88178e-12
4	203204	47.91	8.88178e-12
4	203644	48.01	8.88178e-12
4	204077	48.11	8.88178e-12
4	204510	48.21	8.88178e-12
4	204943	48.31	8.88178e-12
4	205376	48.41	8.88178e-12
4	205809	48.51	8.88178e-12
4	206242	48.61	8.88178e-12
4	206675	48.71	8.88178e-12
4	207108	48.81	8.88178e-12
4	207541	48.91	8.88178e-12
4	207981	49.01	8.88178e-12
4	208414	49.11	8.88178e-12
4	208847	49.21	8.88178e-12
4	209280	49.31	8.88178e-12
4	209713	49.41	8.88178e-12
4	210146	49.51	8.88178e-12
4	210579	49.61	8.88178e-12
4	211012	49.71	8.88178e-12
4	211445	49.81	8.88178e-12
4	211878	49.91	8.88178e-12
4	212319	50.01	8.88178e-12
4	213742	50.11	8.88178e-12
4	215182	50.21	8.88178e-12
4	216691	50.31	8.88178e-12
4	218134	50.41	8.88178e-12
4	219600	50.51	8.88178e-12
4	221073	50.61	8.88178e-12
4	222508	50.71	8.88178e-12
4	223949	50.81	8.88178e-12
4	225405	50.91	8.88178e-12
4	226909	51.01	8.88178e-12
4	228395	51.11	8.88178e-12
4	229851	51.21	8.88178e-12
4	231321	51.31	8.88178e-12
4	232776	51.41	8.88178e-12
4	234231	51.51	8.88178e-12
4	235703	51.61	8.88178e-12
4	237120	51.71	8.88178e-12
4	238597	51.81	8.88178e-12
4	240085	51.91	8.88178e-12
4	241545	52.01	8.88178e-12
4	242994	52.11	8.88178e-12
4	244457	52.21	8.88178e-12
4	245906	52.31	8.88178e-12
4	247357	52.41	8.88178e-12
4	248762	52.51	8.88178e-12
4	250223	52.61	8.88178e-12
4	251690	52.71	8.88178e-12
4	253169	52.81	8.88178e-12
4	254611	52.91	8.88178e-12
4	256066	53.01	8.88178e-12
4	257554	53.11	8.88178e-12
4	258992	53.21	8.88178e-12
4	260463	53.31	8.88178e-12
4	261931	53.41	8.88178e-12
4	263406	53.51	8.88178e-12
4	264846	53.61	8.88178e-12
4	266293	53.71	8.88178e-12
4	267782	53.81	8.88178e-12
4	269206	53.91	8.88178e-12
4	270669	54.01	8.88178e-12
4	272092	54.11	8.88178e-12
4	273534	54.21	8.88178e-12
4	275017	54.31	8.88178e-12
4	276447	54.41	8.88178e-12
4	277900	54.51	8.88178e-12
4	279353	54.61	8.88178e-12
4	280854	54.71	8.88178e-12
4	282325	54.81	8.88178e-12
4	283803	54.91	8.88178e-12
4	285292	55.01	8.88178e-12
4	286758	55.11	8.88178e-12
4	288212	55.21	8.88178e-12
4	289685	55.31	8.88178e-12
4	291196	55.41	8.88178e-12
4	292656	55.51	8.88178e-12
4	294133	55.61	8.88178e-12
4	295530	55.71	8.88178e-12
4	296965	55.81	8.88178e-12
4	298447	55.91	8.88178e-12
4	299906	56.01	8.88178e-12
4	301358	56.11	8.88178e-12
4	302787	56.21	8.88178e-12
4	304217	56.31	8.88178e-12
4	305672	56.41	8.88178e-12
4	307099	56.51	8.88178e-12
4	308547	56.61	8.88178e-12
4	309990	56.71	8.88178e-12
4	311461	56.81	8.88178e-12
4	312932	56.91	8.88178e-12
4	314405	57.01	8.88178e-12
4	315869	57.11	8.88178e-12
4	317349	57.21	8.88178e-12
4	318835	57.31	8.88178e-12
4	320270	57.41	8.88178e-12
4	321684	57.51	8.88178e-12
4	323097	57.61	8.88178e-12
4	324538	57.71	8.88178e-12
4	325986	57.81	8.88178e-12
4	327443	57.91	8.88178e-12
4	328888	58.01	8.88178e-12
4	330359	58.11	8.88178e-12
4	331808	58.21	8.88178e-12
4	333293	58.31	8.88178e-12
4	334718	58.41	8.88178e-12
4	336162	58.51	8.88178e-12
4	337619	58.61	8.88178e-12
4	339079	58.71	8.88178e-12
4	340551	58.81	8.88178e-12
4	342013	58.91	8.88178e-12
4	343484	59.01	8.88178e-12
4	344968	59.11	8.88178e-12
4	346421	59.21	8.88178e-12
4	347866	59.31	8.88178e-12
4	349302	59.41	8.88178e-12
4	350781	59.51	8.88178e-12
4	352275	59.61	8.88178e-12
4	353700	59.71	8.88178e-12
4	355188	59.81	8.88178e-12
4	356652	59.91	8.88178e-12
4	358272	60.01	-3
4	359910	60.11	-3
4	361528	60.21	-3
4	363187	60.31	-3
4	364804	60.41	-3
4	366368	60.51	-7
4	367968	60.61	-7
4	369627	60.71	-7
4	371267	60.81	-7
4	372852	60.91	-7
4	374459	61.01	-7
4	376082	61.11	-7
4	377669	61.21	-7
4	379323	61.31	-7
4	380936	61.41	-7
4	382514	61.51	-7
4	384128	61.61	-7
4	385732	61.71	-7
4	387325	61.81	-7
4	388916	61.91	-7
4	390509	62.01	-7
4	392108	62.11	-7
4	393744	62.21	-7
4	395348	62.31	-7
4	396980	62.41	-7
4	398610	62.51	-7
4	400182	62.61	-7
4	401769	62.71	-7
4	403405	62.81	-7
4	405051	62.91	-7
4	406695	63.01	-7
4	408343	63.11	-7
4	409974	63.21	-7
4	411559	63.31	-7
4	413200	63.41	-7
4	414855	63.51	-7
4	416452	63.61	-7
4	418047	63.71	-7
4	419667	63.81	-7
4	421276	63.91	-7
4	422921	64.01	-7
4	424509	64.11	-7
4	426142	64.21	-7
4	427793	64.31	-7
4	429459	64.41	-7
4	431086	64.51	-7
4	432763	64.61	-7
4	434417	64.71	-7
4	436095	64.81	-7
4	437714	64.91	-7
4	439347	65.01	-7
4	441016	65.11	-7
4	442647	65.21	-7
4	444249	65.31	-7
4	445913	65.41	-7
4	447533	65.51	-7
4	449180	65.61	-7
4	450807	65.71	-7
4	452416	65.81	-7
4	454009	65.91	-7
4	455637	66.01	-7
4	457247	66.11	-7
4	458875	66.21	-7
4	460513	66.31	-7
4	462103	66.41	-7
4	463760	66.51	-7
4	465416	66.61	-7
4	466996	66.71	-7
4	468638	66.81	-7
4	470268	66.91	-7
4	471909	67.01	-7
4	473569	67.11	-7
4	475262	67.21	-7
4	476931	67.31	-7
4	478558	67.41	-7
4	480221	67.51	-7
4	481892	67.61	-7
4	483546	67.71	-7
4	485157	67.81	-7
4	486800	67.91	-7
4	488455	68.01	-7
4	490070	68.11	-7
4	491720	68.21	-7
4	493373	68.31	-7
4	495021	68.41	-7
4	496673	68.51	-7
4	498305	68.61	-7
4	499938	68.71	-7
4	501586	68.81	-7
4	503254	68.91	-7
4	504907	69.01	-7
4	506559	69.11	-7
4	508230	69.21	-7
4	509894	69.31	-7
4	511570	69.41	-7
4	513204	69.51	-7
4	514840	69.61	0
4	516472	69.71	0
4	518142	69.81	0
4	519777	69.91	0
4	521432	70.01	0
4	523082	70.11	0
4	524792	70.21	0
4	526457	70.31	0
4	528085	70.41	0
4	529764	70.51	0
4	531456	70.61	0
4	533143	70.71	0
4	534810	70.81	0
4	536499	70.91	0
4	538149	71.01	0
4	539773	71.11	0
4	541470	71.21	0
4	543178	71.31	0
4	544831	71.41	0
4	546530	71.51	0
4	548243	71.61	0
4	549938	71.71	0
4	551638	71.81	0
4	553279	71.91	0
4	554997	72.01	0
4	556727	72.11	0
4	558377	72.21	0
4	560086	72.31	0
4	561805	72.41	0
4	563477	72.51	0
4	565177	72.61	0
4	566887	72.71	0
4	568597	72.81	0
4	570261	72.91	0
4	571966	73.01	0
4	573686	73.11	0
4	575403	73.21	0
4	577142	73.31	0
4	578844	73.41	0
4	580543	73.51	0
4	582217	73.61	0
4	583910	73.71	0
4	585574	73.81	0
4	587279	73.91	0
4	589000	74.01	0
4	590739	74.11	0
4	592461	74.21	0
4	594178	74.31	0
4	595862	74.41	0
4	597561	74.51	0
4	599324	74.61	0
4	601032	74.71	0
4	602731	74.81	0
4	604467	74.91	0
4	606225	75.01	0
4	607954	75.11	0
4	609697	75.21	0
4	611448	75.31	0
4	613209	75.41	0
4	614986	75.51	0
4	616708	75.61	0
4	618439	75.71	0
4	620177	75.81	0
4	621932	75.91	0
4	623681	76.01	0
4	625443	76.11	0
4	627202	76.21	0
4	628932	76.31	0
4	630691	76.41	0
4	632429	76.51	0
4	634182	76.61	0
4	635911	76.71	0
4	637618	76.81	0
4	639377	76.91	0
4	641103	77.01	0
4	642848	77.11	0
4	644566	77.21	0
4	646314	77.31	0
4	648066	77.41	0
4	649824	77.51	0
4	651522	77.61	0
4	653272	77.71	0
4	655016	77.81	0
4	656747	77.91	0
4	658453	78.01	0
4	660207	78.11	0
4	661966	78.21	0
4	663727	78.31	0
4	665522	78.41	0
4	667255	78.51	0
4	669001	78.61	0
4	670781	78.71	0
4	672566	78.81	0
4	674340	78.91	0
4	676097	79.01	0
4	677886	79.11	0
4	679661	79.21	0
4	681438	79.31	0
4	683214	79.41	0
4	684994	79.51	0
4	686768	79.61	0
4	688533	79.71	0
4	690302	79.81	0
4	692079	79.91	0
4	693859	80.01	0
4	695649	80.11	0
4	697420	80.21	0
4	699217	80.31	0
4	700993	80.41	0
4	702778	80.51	0
4	704560	80.61	0
4	706346	80.71	0
4	708141	80.81	0
4	709906	80.91	0
4	711699	81.01	0
4	713485	81.11	0
4	715263	81.21	0
4	717037	81.31	0
4	718829	81.41	0
4	720610	81.51	0
4	722383	81.61	0
4	724167	81.71	0
4	725974	81.81	0
4	727780	81.91	0
4	729569	82.01	0
4	731358	82.11	0
4	733157	82.21	0
4	734937	82.31	0
4	736731	82.41	0
4	738505	82.51	0
4	740309	82.61	0
4	742111	82.71	0
4	743893	82.81	0
4	745707	82.91	0
4	747493	83.01	0
4	749275	83.11	0
4	751087	83.21	0
4	752890	83.31	0
4	754685	83.41	0
4	756476	83.51	0
4	758268	83.61	0
4	760064	83.71	0
4	761872	83.81	0
4	763678	83.91	0
4	765490	84.01	0
4	767304	84.11	0
4	769115	84.21	0
4	770877	84.31	0
4	772688	84.41	0
4	774469	84.51	0
4	776277	84.61	0
4	778068	84.71	0
4	779878	84.81	0
4	781694	84.91	0
4	783486	85.01	0
4	785256	85.11	0
4	787046	85.21	0
4	788846	85.31	0
4	790640	85.41	0
4	792461	85.51	0
4	794265	85.61	0
4	796065	85.71	0
4	797867	85.81	0
4	799699	85.91	0
4	801507	86.01	0
4	803337	86.11	0
4	805166	86.21	0
4	806983	86.31	0
4	808803	86.41	0
4	810605	86.51	0
4	812431	86.61	0
4	814252	86.71	0
4	816069	86.81	0
4	817884	86.91	0
4	819711	87.01	0
4	821519	87.11	0
4	823332	87.21	0
4	825161	87.31	0
4	826974	87.41	0
4	828795	87.51	0
4	830630	87.61	0
4	832455	87.71	0
4	834271	87.81	0
4	836044	87.91	0
4	837868	88.01	0
4	839689	88.11	0
4	841482	88.21	0
4	843300	88.31	0
4	845135	88.41	0
4	846962	88.51	0
4	848768	88.61	0
4	850588	88.71	0
4	852410	88.81	0
4	854214	88.91	0
4	856046	89.01	0
4	857886	89.11	0
4	859708	89.21	0
4	861534	89.31	0
4	863358	89.41	0
4	865168	89.51	0
4	867007	89.61	0
4	868823	89.71	0
4	870653	89.81	0
4	872474	89.91	0
4	874318	90.01	0
4	876146	90.11	0
4	877968	90.21	0
4	879802	90.31	0
4	881631	90.41	0
4	883463	90.51	0
4	885306	90.61	0
4	887138	90.71	0
4	888964	90.81	0
4	890792	90.91	0
4	892600	91.01	0
4	894440	91.11	0
4	896279	91.21	0
4	898116	91.31	0
4	899944	91.41	0
4	901771	91.51	0
4	903606	91.61	0
4	905441	91.71	0
4	907278	91.81	0
4	909111	91.91	0
4	910950	92.01	0
4	912778	92.11	0
4	914600	92.21	0
4	916418	92.31	0
4	918261	92.41	0
4	920108	92.51	0
4	921950	92.61	0
4	923791	92.71	0
4	925634	92.81	0
4	927462	92.91	0
4	929315	93.01	0
4	931138	93.11	0
4	932971	93.21	0
4	934770	93.31	0
4	936616	93.41	0
4	938462	93.51	0
4	940308	93.61	0
4	942145	93.71	0
4	943978	93.81	0
4	945825	93.91	0
4	947682	94.01	0
4	949510	94.11	0
4	951340	94.21	0
4	953178	94.31	0
4	955025	94.41	0
4	956871	94.51	0
4	958723	94.61	0
4	960566	94.71	0
4	962412	94.81	0
4	964238	94.91	0
4	966092	95.01	0
4	967948	95.11	0
4	969794	95.21	0
4	971644	95.31	0
4	973487	95.41	0
4	975326	95.51	0
4	977176	95.61	0
4	979017	95.71	0
4	980856	95.81	0
4	982693	95.91	0
4	984540	96.01	0
4	986388	96.11	0
4	988217	96.21	0
4	990062	96.31	0
4	991909	96.41	0
4	993759	96.51	0
4	995611	96.61	0
4	997463	96.71	0
4	999308	96.81	0
4	1001160	96.91	0
4	1003009	97.01	0
4	1004854	97.11	0
4	1006695	97.21	0
4	1008549	97.31	0
4	1010392	97.41	0
4	1012242	97.51	0
4	1014090	97.61	0
4	1015938	97.71	0
4	1017779	97.81	0
4	1019627	97.91	0
4	1021484	98.01	0
4	1023332	98.11	0
4	1025182	98.21	0
4	1027034	98.31	0
4	1028886	98.41	0
4	1030742	98.51	0
4	1032586	98.61	0
4	1034429	98.71	0
4	1036281	98.81	0
4	1038117	98.91	0
4	1039973	99.01	0
4	1041825	99.11	0
4	1043675	99.21	0
4	1045517	99.31	0
4	1047367	99.41	0
4	1049207	99.51	0
4	1051047	99.61	0
4	1052897	99.71	0
4	1054751	99.81	0
4	1056591	99.91	0
3	232	1.11	-0.000358191
3	666	1.21	-0.000681704
3	1099	1.31	-0.00093487
3	1533	1.41	-0.00112579
3	1967	1.51	-0.00126221
3	2400	1.61	-0.00135149
3	2833	1.71	-0.00140049
3	3267	1.81	-0.00141557
3	3700	1.91	-0.00140255
3	4142	2.01	-0.00136671
3	4575	2.11	-0.0013128
3	5008	2.21	-0.00124502
3	5441	2.31	-0.0011671
3	5874	2.41	-0.00108223
3	6307	2.51	-0.000993208
3	6740	2.61	-0.000902362
3	7173	2.71	-0.000811651
3	7606	2.81	-0.000722679
3	8039	2.91	-0.000636729
3	8479	3.01	-0.0005548
3	8912	3.11	-0.000477639
3	9345	3.21	-0.000405773
3	9778	3.31	-0.00033954
3	10211	3.41	-0.000279116
3	10644	3.51	-0.000224541
3	11077	3.61	-0.000175743
3	11510	3.71	-0.00013256
3	11943	3.81	-9.47571e-05
3	12376	3.91	-6.2046e-05
3	12816	4.01	-3.40986e-05
3	13249	4.11	-1.05605e-05
3	13682	4.21	8.93844e-06
3	14115	4.31	2.4774e-05
3	14548	4.41	3.73203e-05
3	14981	4.51	4.69433e-05
3	15414	4.61	5.39956e-05
3	15847	4.71	5.88124e-05
3	16280	4.81	6.1709e-05
3	16713	4.91	6.29785e-05
3	17153	5.01	6.28903e-05
3	17586	5.11	6.169e-05
3	18019	5.21	5.95988e-05
3	18452	5.31	5.68144e-05
3	18885	5.41	5.35112e-05
3	19318	5.51	4.98416e-05
3	19751	5.61	4.59373e-05
3	20184	5.71	4.19105e-05
3	20617	5.81	3.78555e-05
3	21050	5.91	3.38499e-05
3	21490	6.01	2.99569e-05
3	21923	6.11	2.62259e-05
3	22356	6.21	2.26948e-05
3	22789	6.31	1.93911e-05
3	23222	6.41	1.6333e-05
3	23655	6.51	1.35314e-05
3	24088	6.61	1.09904e-05
3	24521	6.71	8.70882e-06
3	24954	6.81	6.6809e-06
3	25387	6.91	4.89747e-06
3	25827	7.01	3.3466e-06
3	26260	7.11	2.01432e-06
3	26693	7.21	8.85256e-07
3	27126	7.31	-5.68459e-08
3	27559	7.41	-8.28678e-07
3	27992	7.51	-1.44699e-06
3	28425	7.61	-1.92826e-06
3	28858	7.71	-2.28849e-06
3	29291	7.81	-2.54296e-06
3	29724	7.91	-2.7061e-06
3	30164	8.01	-2.79139e-06
3	30597	8.11	-2.8113e-06
3	31030	8.21	-2.77721e-06
3	31463	8.31	-2.69943e-06
3	31896	8.41	-2.58721e-06
3	32329	8.51	-2.44874e-06
3	32762	8.61	-2.29123e-06
3	33195	8.71	-2.12092e-06
3	33628	8.81	-1.94317e-06
3	34061	8.91	-1.7625e-06
3	34501	9.01	-1.58267e-06
3	34934	9.11	-1.40677e-06
3	35367	9.21	-1.23723e-06
3	35800	9.31	-1.07596e-06
3	36233	9.41	-9.24364e-07
3	36666	9.51	-7.83424e-07
3	37099	9.61	-6.53753e-07
3	37532	9.71	-5.35652e-07
3	37965	9.81	-4.2916e-07
3	38398	9.91	-3.34103e-07
3	38838	10.01	-2.5013e-07
3	39271	10.11	-1.76757e-07
3	39704	10.21	-1.13395e-07
3	40137	10.31	-5.93825e-08
3	40570	10.41	-1.40084e-08
3	41003	10.51	2.34657e-08
3	41436	10.61	5.3787e-08
3	41869	10.71	7.76954e-08
3	42302	10.81	9.59155e-08
3	42735	10.91	1.09142e-07
3	43175	11.01	1.18035e-07
3	43608	11.11	1.23212e-07
3	44041	11.21	1.2525e-07
3	44474	11.31	1.24675e-07
3	44907	11.41	1.21968e-07
3	45340	11.51	1.17559e-07
3	45773	11.61	1.11834e-07
3	46206	11.71	1.05132e-07
3	46639	11.81	9.77476e-08
3	47072	11.91	8.99373e-08
3	47512	12.01	8.19171e-08
3	47945	12.11	7.38677e-08
3	48378	12.21	6.59401e-08
3	48811	12.31	5.82538e-08
3	49244	12.41	5.09036e-08
3	49677	12.51	4.39606e-08
3	50110	12.61	3.74765e-08
3	50543	12.71	3.14852e-08
3	50976	12.81	2.60055e-08
3	51409	12.91	2.10438e-08
3	51849	13.01	1.65958e-08
3	52282	13.11	1.26498e-08
3	52715	13.21	9.18554e-09
3	53148	13.31	6.17888e-09
3	53581	13.41	3.60174e-09
3	54014	13.51	1.42322e-09
3	54447	13.61	-3.90088e-10
3	54880	13.71	-1.8705e-09
3	55313	13.81	-3.05107e-09
3	55746	13.91	-3.96518e-09
3	56186	14.01	-4.64375e-09
3	56619	14.11	-5.11768e-09
3	57052	14.21	-5.41434e-09
3	57485	14.31	-5.56071e-09
3	57918	14.41	-5.58096e-09
3	58351	14.51	-5.49747e-09
3	58784	14.61	-5.33085e-09
3	59217	14.71	-5.09743e-09
3	59650	14.81	-4.81464e-09
3	60083	14.91	-4.49667e-09
3	60523	15.01	-4.15525e-09
3	60956	15.11	-3.80034e-09
3	61389	15.21	-3.44151e-09
3	61822	15.31	-3.08518e-09
3	62255	15.41	-2.73772e-09
3	62688	15.51	-2.40306e-09
3	63121	15.61	-2.08544e-09
3	63554	15.71	-1.78773e-09
3	63987	15.81	-1.51132e-09
3	64420	15.91	-1.25766e-09
3	64860	16.01	-1.02673e-09
3	65293	16.11	-8.18901e-10
3	65726	16.21	-6.33804e-10
3	66159	16.31	-4.70735e-10
3	66592	16.41	-3.28271e-10
3	67025	16.51	-2.05702e-10
3	67458	16.61	-1.00897e-10
3	67891	16.71	-1.35003e-11
3	68324	16.81	5.82645e-11
3	68757	16.91	1.16174e-10
3	69197	17.01	1.61648e-10
3	69630	17.11	1.95755e-10
3	70063	17.21	2.20624e-10
3	70496	17.31	2.36966e-10
3	70929	17.41	2.45848e-10
3	71362	17.51	2.4869e-10
3	71795	17.61	2.46914e-10
3	72228	17.71	2.40874e-10
3	72661	17.81	2.31282e-10
3	73094	17.91	2.19913e-10
3	73534	18.01	2.05702e-10
3	73967	18.11	1.91491e-10
3	74400	18.21	1.7657e-10
3	74833	18.31	1.59872e-10
3	75266	18.41	1.44595e-10
3	75699	18.51	1.30385e-10
3	76132	18.61	1.16174e-10
3	76565	18.71	1.01963e-10
3	76998	18.81	8.7752e-11
3	77431	18.91	7.35412e-11
3	77871	19.01	6.21725e-11
3	78304	19.11	5.15143e-11
3	78737	19.21	4.08562e-11
3	79170	19.31	3.16192e-11
3	79603	19.41	2.45137e-11
3	80036	19.51	1.74083e-11
3	80469	19.61	1.03029e-11
3	80902	19.71	6.03961e-12
3	81335	19.81	2.4869e-12
3	81768	19.91	-1.06581e-12
3	82208	20.01	-4.61853e-12
3	82641	20.11	-8.17124e-12
3	83074	20.21	-8.88178e-12
3	83507	20.31	-8.88178e-12
3	83940	20.41	-8.88178e-12
3	84373	20.51	-8.88178e-12
3	84806	20.61	-8.88178e-12
3	85239	20.71	-8.88178e-12
3	85672	20.81	-8.88178e-12
3	86105	20.91	-8.88178e-12
3	86545	21.01	-8.88178e-12
3	86978	21.11	-8.88178e-12
3	87411	21.21	-8.88178e-12
3	87844	21.31	-8.88178e-12
3	88277	21.41	-8.88178e-12
3	88710	21.51	-8.88178e-12
3	89143	21.61	-8.88178e-12
3	89576	21.71	-8.88178e-12
3	90009	21.81	-8.88178e-12
3	90442	21.91	-8.88178e-12
3	90882	22.01	-8.88178e-12
3	91315	22.11	-8.88178e-12
3	91748	22.21	-8.17124e-12
3	92181	22.31	-7.4607e-12
3	92614	22.41	-6.75016e-12
3	93047	22.51	-6.03961e-12
3	93480	22.61	-5.68434e-12
3	93913	22.71	-4.9738e-12
3	94346	22.81	-4.61853e-12
3	94779	22.91	-4.26326e-12
3	95219	23.01	-3.55271e-12
3	95652	23.11	-3.19744e-12
3	96085	23.21	-3.19744e-12
3	96518	23.31	-2.84217e-12
3	96951	23.41	-2.4869e-12
3	97384	23.51	-2.13163e-12
3	97817	23.61	-2.13163e-12
3	98250	23.71	-1.77636e-12
3	98683	23.81	-1.77636e-12
3	99116	23.91	-1.42109e-12
3	99556	24.01	-1.42109e-12
3	99989	24.11	-1.06581e-12
3	100422	24.21	-1.06581e-12
3	100855	24.31	-1.06581e-12
3	101288	24.41	-1.06581e-12
3	101721	24.51	-7.10543e-13
3	102154	24.61	-7.10543e-13
3	102587	24.71	-7.10543e-13
3	103020	24.81	-7.10543e-13
3	103453	24.91	-7.10543e-13
3	103893	25.01	-3.55271e-13
3	104326	25.11	-3.55271e-13
3	104759	25.21	-3.55271e-13
3	105192	25.31	-3.55271e-13
3	105625	25.41	-3.55271e-13
3	106058	25.51	-3.55271e-13
3	106491	25.61	-3.55271e-13
3	106924	25.71	-3.55271e-13
3	107357	25.81	-3.55271e-13
3	107790	25.91	-3.55271e-13
3	108230	26.01	0
3	108663	26.11	0
3	109096	26.21	0
3	109529	26.31	0
3	109962	26.41	0
3	110395	26.51	0
3	110828	26.61	0
3	111261	26.71	0
3	111694	26.81	0
3	112127	26.91	0
3	112567	27.01	0
3	113000	27.11	0
3	113433	27.21	0
3	113866	27.31	0
3	114299	27.41	0
3	114732	27.51	0
3	115165	27.61	0
3	115598	27.71	0
3	116031	27.81	0
3	116464	27.91	0
3	116904	28.01	0
3	117337	28.11	0
3	117770	28.21	0
3	118203	28.31	0
3	118636	28.41	0
3	119069	28.51	0
3	119502	28.61	0
3	119935	28.71	0
3	120368	28.81	0
3	120801	28.91	0
3	121241	29.01	0
3	121674	29.11	0
3	122107	29.21	0
3	122540	29.31	0
3	122973	29.41	0
3	123406	29.51	0
3	123839	29.61	0
3	124272	29.71	0
3	124705	29.81	0
3	125138	29.91	0
3	125578	30.01	0
3	126011	30.11	0
3	126444	30.21	0
3	126877	30.31	0
3	127310	30.41	0
3	127743	30.51	0
3	128176	30.61	0
3	128609	30.71	0
3	129042	30.81	0
3	129475	30.91	0
3	129915	31.01	0
3	130348	31.11	0
3	130781	31.21	0
3	131214	31.31	0
3	131647	31.41	0
3	132080	31.51	0
3	132513	31.61	0
3	132946	31.71	0
3	133379	31.81	0
3	133812	31.91	0
3	134252	32.01	0
3	134685	32.11	0
3	135118	32.21	0
3	135551	32.31	0
3	135984	32.41	0
3	136417	32.51	0
3	136850	32.61	0
3	137283	32.71	0
3	137716	32.81	0
3	138149	32.91	0
3	138589	33.01	0
3	139022	33.11	0
3	139455	33.21	0
3	139888	33.31	0
3	140321	33.41	0
3	140754	33.51	0
3	141187	33.61	0
3	141620	33.71	0
3	142053	33.81	0
3	142486	33.91	0
3	142926	34.01	0
3	143359	34.11	0
3	143792	34.21	0
3	144225	34.31	0
3	144658	34.41	0
3	145091	34.51	0
3	145524	34.61	0
3	145957	34.71	0
3	146390	34.81	0
3	146823	34.91	0
3	147263	35.01	0
3	147696	35.11	0
3	148129	35.21	0
3	148562	35.31	0
3	148995	35.41	0
3	149428	35.51	0
3	149861	35.61	0
3	150294	35.71	0
3	150727	35.81	0
3	151160	35.91	0
3	151600	36.01	0
3	152033	36.11	0
3	152466	36.21	0
3	152899	36.31	0
3	153332	36.41	0
3	153765	36.51	0
3	154198	36.61	0
3	154631	36.71	0
3	155064	36.81	0
3	155497	36.91	0
3	155937	37.01	0
3	156370	37.11	0
3	156803	37.21	0
3	157236	37.31	0
3	157669	37.41	0
3	158102	37.51	0
3	158535	37.61	0
3	158968	37.71	0
3	159401	37.81	0
3	159834	37.91	0
3	160274	38.01	0
3	160707	38.11	0
3	161140	38.21	0
3	161573	38.31	0
3	162006	38.41	0
3	162439	38.51	0
3	162872	38.61	0
3	163305	38.71	0
3	163738	38.81	0
3	164171	38.91	0
3	164611	39.01	0
3	165044	39.11	0
3	165477	39.21	0
3	165910	39.31	0
3	166343	39.41	0
3	166776	39.51	0
3	167209	39.61	0
3	167642	39.71	0
3	168075	39.81	0
3	168508	39.91	0
3	168948	40.01	0
3	169381	40.11	0
3	169814	40.21	0
3	170247	40.31	0
3	170680	40.41	0
3	171113	40.51	0
3	171546	40.61	0
3	171979	40.71	0
3	172412	40.81	0
3	172845	40.91	0
3	173285	41.01	0
3	173718	41.11	0
3	174151	41.21	0
3	174584	41.31	0
3	175017	41.41	0
3	175450	41.51	0
3	175883	41.61	0
3	176316	41.71	0
3	176749	41.81	0
3	177182	41.91	0
3	177622	42.01	0
3	178055	42.11	0
3	178488	42.21	0
3	178921	42.31	0
3	179354	42.41	0
3	179787	42.51	0
3	180220	42.61	0
3	180653	42.71	0
3	181086	42.81	0
3	181519	42.91	0
3	181959	43.01	0
3	182392	43.11	0
3	182825	43.21	0
3	183258	43.31	0
3	183691	43.41	0
3	184124	43.51	0
3	184557	43.61	0
3	184990	43.71	0
3	185423	43.81	0
3	185856	43.91	0
3	186296	44.01	0
3	186729	44.11	0
3	187162	44.21	0
3	187595	44.31	0
3	188028	44.41	0
3	188461	44.51	0
3	188894	44.61	0
3	189327	44.71	0
3	189760	44.81	0
3	190193	44.91	0
3	190633	45.01	0
3	191066	45.11	0
3	191499	45.21	0
3	191932	45.31	0
3	192365	45.41	0
3	192798	45.51	0
3	193231	45.61	0
3	193664	45.71	0
3	194097	45.81	0
3	194530	45.91	0
3	194970	46.01	0
3	195403	46.11	0
3	195836	46.21	0
3	196269	46.31	0
3	196702	46.41	0
3	197135	46.51	0
3	197568	46.61	0
3	198001	46.71	0
3	198434	46.81	0
3	198867	46.91	0
3	199307	47.01	0
3	199740	47.11	0
3	200173	47.21	0
3	200606	47.31	0
3	201039	47.41	0
3	201472	47.51	0
3	201905	47.61	0
3	202338	47.71	0
3	202771	47.81	0
3	203204	47.91	0
3	203644	48.01	0
3	204077	48.11	0
3	204510	48.21	0
3	204943	48.31	0
3	205376	48.41	0
3	205809	48.51	0
3	206242	48.61	0
3	206675	48.71	0
3	207108	48.81	0
3	207541	48.91	0
3	207981	49.01	0
3	208414	49.11	0
3	208847	49.21	0
3	209280	49.31	0
3	209713	49.41	0
3	210146	49.51	0
3	210579	49.61	0
3	211012	49.71	0
3	211445	49.81	0
3	211878	49.91	0
3	212319	50.01	0
3	213742	50.11	0
3	215182	50.21	0
3	216691	50.31	0
3	218134	50.41	0
3	219600	50.51	0
3	221073	50.61	0
3	222508	50.71	0
3	223949	50.81	0
3	225405	50.91	0
3	226909	51.01	0
3	228395	51.11	0
3	229851	51.21	0
3	231321	51.31	0
3	232776	51.41	0
3	234231	51.51	0
3	235703	51.61	0
3	237120	51.71	0
3	238597	51.81	0
3	240085	51.91	0
3	241545	52.01	0
3	242994	52.11	0
3	244457	52.21	0
3	245906	52.31	0
3	247357	52.41	0
3	248762	52.51	0
3	250223	52.61	0
3	251690	52.71	0
3	253169	52.81	0
3	254611	52.91	0
3	256066	53.01	0
3	257554	53.11	0
3	258992	53.21	0
3	260463	53.31	0
3	261931	53.41	0
3	263406	53.51	0
3	264846	53.61	0
3	266293	53.71	0
3	267782	53.81	0
3	269206	53.91	0
3	270669	54.01	0
3	272092	54.11	0
3	273534	54.21	0
3	275017	54.31	0
3	276447	54.41	0
3	277900	54.51	0
3	279353	54.61	0
3	280854	54.71	0
3	282325	54.81	0
3	283803	54.91	0
3	285292	55.01	0
3	286758	55.11	0
3	288212	55.21	0
3	289685	55.31	0
3	291196	55.41	0
3	292656	55.51	0
3	294133	55.61	0
3	295530	55.71	0
3	296965	55.81	0
3	298447	55.91	0
3	299906	56.01	0
3	301358	56.11	0
3	302787	56.21	0
3	304217	56.31	0
3	305672	56.41	0
3	307099	56.51	0
3	308547	56.61	0
3	309990	56.71	0
3	311461	56.81	0
3	312932	56.91	0
3	314405	57.01	0
3	315869	57.11	0
3	317349	57.21	0
3	318835	57.31	0
3	320270	57.41	0
3	321684	57.51	0
3	323097	57.61	0
3	324538	57.71	0
3	325986	57.81	0
3	327443	57.91	0
3	328888	58.01	0
3	330359	58.11	0
3	331808	58.21	0
3	333293	58.31	0
3	334718	58.41	0
3	336162	58.51	0
3	337619	58.61	0
3	339079	58.71	0
3	340551	58.81	0
3	342013	58.91	0
3	343484	59.01	0
3	344968	59.11	0
3	346421	59.21	0
3	347866	59.31	0
3	349302	59.41	0
3	350781	59.51	0
3	352275	59.61	0
3	353700	59.71	0
3	355188	59.81	0
3	356652	59.91	0
3	358272	60.01	-0.0588235
3	359910	60.11	-0.587211
3	361528	60.21	-1.02067
3	363187	60.31	-1.37626
3	364804	60.41	-1.66797
3	366368	60.51	-1.9857
3	367968	60.61	-2.88653
3	369627	60.71	-3
3	371267	60.81	-3
3	372852	60.91	-3
3	374459	61.01	-3
3	376082	61.11	-3
3	377669	61.21	-3
3	379323	61.31	-3
3	380936	61.41	-3
3	382514	61.51	-3
3	384128	61.61	-3
3	385732	61.71	-3
3	387325	61.81	-3
3	388916	61.91	-3
3	390509	62.01	-3
3	392108	62.11	-3
3	393744	62.21	-3
3	395348	62.31	-3
3	396980	62.41	-3
3	398610	62.51	-3
3	400182	62.61	-3
3	401769	62.71	-3
3	403405	62.81	-3
3	405051	62.91	-3
3	406695	63.01	-3
3	408343	63.11	-3
3	409974	63.21	-3
3	411559	63.31	-3
3	413200	63.41	-3
3	414855	63.51	-3
3	416452	63.61	-3
3	418047	63.71	-3
3	419667	63.81	-3
3	421276	63.91	-3
3	422921	64.01	-3
3	424509	64.11	-3
3	426142	64.21	-3
3	427793	64.31	-3
3	429459	64.41	-3
3	431086	64.51	-3
3	432763	64.61	-3
3	434417	64.71	-3
3	436095	64.81	-3
3	437714	64.91	-3
3	439347	65.01	-3
3	441016	65.11	-3
3	442647	65.21	-3
3	444249	65.31	-3
3	445913	65.41	-3
3	447533	65.51	-3
3	449180	65.61	-3
3	450807	65.71	-3
3	452416	65.81	-3
3	454009	65.91	-3
3	455637	66.01	-3
3	457247	66.11	-3
3	458875	66.21	-3
3	460513	66.31	-3
3	462103	66.41	-3
3	463760	66.51	-3
3	465416	66.61	-3
3	466996	66.71	-3
3	468638	66.81	-3
3	470268	66.91	-3
3	471909	67.01	-3
3	473569	67.11	-3
3	475262	67.21	-3
3	476931	67.31	-3
3	478558	67.41	-3
3	480221	67.51	-3
3	481892	67.61	-3
3	483546	67.71	-3
3	485157	67.81	-3
3	486800	67.91	-3
3	488455	68.01	-3
3	490070	68.11	-3
3	491720	68.21	-3
3	493373	68.31	-3
3	495021	68.41	-3
3	496673	68.51	-3
3	498305	68.61	-3
3	499938	68.71	-3
3	501586	68.81	-3
3	503254	68.91	-3
3	504907	69.01	-3
3	506559	69.11	-3
3	508230	69.21	-3
3	509894	69.31	-3
3	511570	69.41	-3
3	513204	69.51	-3
3	514840	69.61	0
3	516472	69.71	0
3	518142	69.81	0
3	519777	69.91	0
3	521432	70.01	0
3	523082	70.11	0
3	524792	70.21	0
3	526457	70.31	0
3	528085	70.41	0
3	529764	70.51	0
3	531456	70.61	0
3	533143	70.71	0
3	534810	70.81	0
3	536499	70.91	0
3	538149	71.01	0
3	539773	71.11	0
3	541470	71.21	0
3	543178	71.31	0
3	544831	71.41	0
3	546530	71.51	0
3	548243	71.61	0
3	549938	71.71	0
3	551638	71.81	0
3	553279	71.91	0
3	554997	72.01	0
3	556727	72.11	0
3	558377	72.21	0
3	560086	72.31	0
3	561805	72.41	0
3	563477	72.51	0
3	565177	72.61	0
3	566887	72.71	0
3	568597	72.81	0
3	570261	72.91	0
3	571966	73.01	0
3	573686	73.11	0
3	575403	73.21	0
3	577142	73.31	0
3	578844	73.41	0
3	580543	73.51	0
3	582217	73.61	0
3	583910	73.71	0
3	585574	73.81	0
3	587279	73.91	0
3	589000	74.01	0
3	590739	74.11	0
3	592461	74.21	0
3	594178	74.31	0
3	595862	74.41	0
3	597561	74.51	0
3	599324	74.61	0
3	601032	74.71	0
3	602731	74.81	0
3	604467	74.91	0
3	606225	75.01	0
3	607954	75.11	0
3	609697	75.21	0
3	611448	75.31	0
3	613209	75.41	0
3	614986	75.51	0
3	616708	75.61	0
3	618439	75.71	0
3	620177	75.81	0
3	621932	75.91	0
3	623681	76.01	0
3	625443	76.11	0
3	627202	76.21	0
3	628932	76.31	0
3	630691	76.41	0
3	632429	76.51	0
3	634182	76.61	0
3	635911	76.71	0
3	637618	76.81	0
3	639377	76.91	0
3	641103	77.01	0
3	642848	77.11	0
3	644566	77.21	0
3	646314	77.31	0
3	648066	77.41	0
3	649824	77.51	0
3	651522	77.61	0
3	653272	77.71	0
3	655016	77.81	0
3	656747	77.91	0
3	658453	78.01	0
3	660207	78.11	0
3	661966	78.21	0
3	663727	78.31	0
3	665522	78.41	0
3	667255	78.51	0
3	669001	78.61	0
3	670781	78.71	0
3	672566	78.81	0
3	674340	78.91	0
3	676097	79.01	0
3	677886	79.11	0
3	679661	79.21	0
3	681438	79.31	0
3	683214	79.41	0
3	684994	79.51	0
3	686768	79.61	0
3	688533	79.71	0
3	690302	79.81	0
3	692079	79.91	0
3	693859	80.01	0
3	695649	80.11	0
3	697420	80.21	0
3	699217	80.31	0
3	700993	80.41	0
3	702778	80.51	0
3	704560	80.61	0
3	706346	80.71	0
3	708141	80.81	0
3	709906	80.91	0
3	711699	81.01	0
3	713485	81.11	0
3	715263	81.21	0
3	717037	81.31	0
3	718829	81.41	0
3	720610	81.51	0
3	722383	81.61	0
3	724167	81.71	0
3	725974	81.81	0
3	727780	81.91	0
3	729569	82.01	0
3	731358	82.11	0
3	733157	82.21	0
3	734937	82.31	0
3	736731	82.41	0
3	738505	82.51	0
3	740309	82.61	0
3	742111	82.71	0
3	743893	82.81	0
3	745707	82.91	0
3	747493	83.01	0
3	749275	83.11	0
3	751087	83.21	0
3	752890	83.31	0
3	754685	83.41	0
3	756476	83.51	0
3	758268	83.61	0
3	760064	83.71	0
3	761872	83.81	0
3	763678	83.91	0
3	765490	84.01	0
3	767304	84.11	0
3	769115	84.21	0
3	770877	84.31	0
3	772688	84.41	0
3	774469	84.51	0
3	776277	84.61	0
3	778068	84.71	0
3	779878	84.81	0
3	781694	84.91	0
3	783486	85.01	0
3	785256	85.11	0
3	787046	85.21	0
3	788846	85.31	0
3	790640	85.41	0
3	792461	85.51	0
3	794265	85.61	0
3	796065	85.71	0
3	797867	85.81	0
3	799699	85.91	0
3	801507	86.01	0
3	803337	86.11	0
3	805166	86.21	0
3	806983	86.31	0
3	808803	86.41	0
3	810605	86.51	0
3	812431	86.61	0
3	814252	86.71	0
3	816069	86.81	0
3	817884	86.91	0
3	819711	87.01	0
3	821519	87.11	0
3	823332	87.21	0
3	825161	87.31	0
3	826974	87.41	0
3	828795	87.51	0
3	830630	87.61	0
3	832455	87.71	0
3	834271	87.81	0
3	836044	87.91	0
3	837868	88.01	0
3	839689	88.11	0
3	841482	88.21	0
3	843300	88.31	0
3	845135	88.41	0
3	846962	88.51	0
3	848768	88.61	0
3	850588	88.71	0
3	852410	88.81	0
3	854214	88.91	0
3	856046	89.01	0
3	857886	89.11	0
3	859708	89.21	0
3	861534	89.31	0
3	863358	89.41	0
3	865168	89.51	0
3	867007	89.61	0
3	868823	89.71	0
3	870653	89.81	0
3	872474	89.91	0
3	874318	90.01	0
3	876146	90.11	0
3	877968	90.21	0
3	879802	90.31	0
3	881631	90.41	0
3	883463	90.51	0
3	885306	90.61	0
3	887138	90.71	0
3	888964	90.81	0
3	890792	90.91	0
3	892600	91.01	0
3	894440	91.11	0
3	896279	91.21	0
3	898116	91.31	0
3	899944	91.41	0
3	901771	91.51	0
3	903606	91.61	0
3	905441	91.71	0
3	907278	91.81	0
3	909111	91.91	0
3	910950	92.01	0
3	912778	92.11	0
3	914600	92.21	0
3	916418	92.31	0
3	918261	92.41	0
3	920108	92.51	0
3	921950	92.61	0
3	923791	92.71	0
3	925634	92.81	0
3	927462	92.91	0
3	929315	93.01	0
3	931138	93.11	0
3	932971	93.21	0
3	934770	93.31	0
3	936616	93.41	0
3	938462	93.51	0
3	940308	93.61	0
3	942145	93.71	0
3	943978	93.81	0
3	945825	93.91	0
3	947682	94.01	0
3	949510	94.11	0
3	951340	94.21	0
3	953178	94.31	0
3	955025	94.41	0
3	956871	94.51	0
3	958723	94.61	0
3	960566	94.71	0
3	962412	94.81	0
3	964238	94.91	0
3	966092	95.01	0
3	967948	95.11	0
3	969794	95.21	0
3	971644	95.31	0
3	973487	95.41	0
3	975326	95.51	0
3	977176	95.61	0
3	979017	95.71	0
3	980856	95.81	0
3	982693	95.91	0
3	984540	96.01	0
3	986388	96.11	0
3	988217	96.21	0
3	990062	96.31	0
3	991909	96.41	0
3	993759	96.51	0
3	995611	96.61	0
3	997463	96.71	0
3	999308	96.81	0
3	1001160	96.91	0
3	1003009	97.01	0
3	1004854	97.11	0
3	1006695	97.21	0
3	1008549	97.31	0
3	1010392	97.41	0
3	1012242	97.51	0
3	1014090	97.61	0
3	1015938	97.71	0
3	1017779	97.81	0
3	1019627	97.91	0
3	1021484	98.01	0
3	1023332	98.11	0
3	1025182	98.21	0
3	1027034	98.31	0
3	1028886	98.41	0
3	1030742	98.51	0
3	1032586	98.61	0
3	1034429	98.71	0
3	1036281	98.81	0
3	1038117	98.91	0
3	1039973	99.01	0
3	1041825	99.11	0
3	1043675	99.21	0
3	1045517	99.31	0
3	1047367	99.41	0
3	1049207	99.51	0
3	1051047	99.61	0
3	1052897	99.71	0
3	1054751	99.81	0
3	1056591	99.91	0
7	232	1.11	242.45
7	666	1.21	242.45
7	1099	1.31	242.45
7	1533	1.41	242.45
7	1967	1.51	242.45
7	2400	1.61	242.45
7	2833	1.71	242.45
7	3267	1.81	242.45
7	3700	1.91	242.45
7	4142	2.01	242.45
7	4575	2.11	242.45
7	5008	2.21	242.45
7	5441	2.31	242.45
7	5874	2.41	242.45
7	6307	2.51	242.45
7	6740	2.61	242.45
7	7173	2.71	242.45
7	7606	2.81	242.45
7	8039	2.91	242.45
7	8479	3.01	242.45
7	8912	3.11	242.45
7	9345	3.21	242.45
7	9778	3.31	242.45
7	10211	3.41	242.45
7	10644	3.51	242.45
7	11077	3.61	242.45
7	11510	3.71	242.45
7	11943	3.81	242.45
7	12376	3.91	242.45
7	12816	4.01	242.45
7	13249	4.11	242.45
7	13682	4.21	242.45
7	14115	4.31	242.45
7	14548	4.41	242.45
7	14981	4.51	242.45
7	15414	4.61	242.45
7	15847	4.71	242.45
7	16280	4.81	242.45
7	16713	4.91	242.45
7	17153	5.01	242.45
7	17586	5.11	242.45
7	18019	5.21	242.45
7	18452	5.31	242.45
7	18885	5.41	242.45
7	19318	5.51	242.45
7	19751	5.61	242.45
7	20184	5.71	242.45
7	20617	5.81	242.45
7	21050	5.91	242.45
7	21490	6.01	242.45
7	21923	6.11	242.45
7	22356	6.21	242.45
7	22789	6.31	242.45
7	23222	6.41	242.45
7	23655	6.51	242.45
7	24088	6.61	242.45
7	24521	6.71	242.45
7	24954	6.81	242.45
7	25387	6.91	242.45
7	25827	7.01	242.45
7	26260	7.11	242.45
7	26693	7.21	242.45
7	27126	7.31	242.45
7	27559	7.41	242.45
7	27992	7.51	242.45
7	28425	7.61	242.45
7	28858	7.71	242.45
7	29291	7.81	242.45
7	29724	7.91	242.45
7	30164	8.01	242.45
7	30597	8.11	242.45
7	31030	8.21	242.45
7	31463	8.31	242.45
7	31896	8.41	242.45
7	32329	8.51	242.45
7	32762	8.61	242.45
7	33195	8.71	242.45
7	33628	8.81	242.45
7	34061	8.91	242.45
7	34501	9.01	242.45
7	34934	9.11	242.45
7	35367	9.21	242.45
7	35800	9.31	242.45
7	36233	9.41	242.45
7	36666	9.51	242.45
7	37099	9.61	242.45
7	37532	9.71	242.45
7	37965	9.81	242.45
7	38398	9.91	242.45
7	38838	10.01	242.45
7	39271	10.11	242.45
7	39704	10.21	242.45
7	40137	10.31	242.45
7	40570	10.41	242.45
7	41003	10.51	242.45
7	41436	10.61	242.45
7	41869	10.71	242.45
7	42302	10.81	242.45
7	42735	10.91	242.45
7	43175	11.01	242.45
7	43608	11.11	242.45
7	44041	11.21	242.45
7	44474	11.31	242.45
7	44907	11.41	242.45
7	45340	11.51	242.45
7	45773	11.61	242.45
7	46206	11.71	242.45
7	46639	11.81	242.45
7	47072	11.91	242.45
7	47512	12.01	242.45
7	47945	12.11	242.45
7	48378	12.21	242.45
7	48811	12.31	242.45
7	49244	12.41	242.45
7	49677	12.51	242.45
7	50110	12.61	242.45
7	50543	12.71	242.45
7	50976	12.81	242.45
7	51409	12.91	242.45
7	51849	13.01	242.45
7	52282	13.11	242.45
7	52715	13.21	242.45
7	53148	13.31	242.45
7	53581	13.41	242.45
7	54014	13.51	242.45
7	54447	13.61	242.45
7	54880	13.71	242.45
7	55313	13.81	242.45
7	55746	13.91	242.45
7	56186	14.01	242.45
7	56619	14.11	242.45
7	57052	14.21	242.45
7	57485	14.31	242.45
7	57918	14.41	242.45
7	58351	14.51	242.45
7	58784	14.61	242.45
7	59217	14.71	242.45
7	59650	14.81	242.45
7	60083	14.91	242.45
7	60523	15.01	242.45
7	60956	15.11	242.45
7	61389	15.21	242.45
7	61822	15.31	242.45
7	62255	15.41	242.45
7	62688	15.51	242.45
7	63121	15.61	242.45
7	63554	15.71	242.45
7	63987	15.81	242.45
7	64420	15.91	242.45
7	64860	16.01	242.45
7	65293	16.11	242.45
7	65726	16.21	242.45
7	66159	16.31	242.45
7	66592	16.41	242.45
7	67025	16.51	242.45
7	67458	16.61	242.45
7	67891	16.71	242.45
7	68324	16.81	242.45
7	68757	16.91	242.45
7	69197	17.01	242.45
7	69630	17.11	242.45
7	70063	17.21	242.45
7	70496	17.31	242.45
7	70929	17.41	242.45
7	71362	17.51	242.45
7	71795	17.61	242.45
7	72228	17.71	242.45
7	72661	17.81	242.45
7	73094	17.91	242.45
7	73534	18.01	242.45
7	73967	18.11	242.45
7	74400	18.21	242.45
7	74833	18.31	242.45
7	75266	18.41	242.45
7	75699	18.51	242.45
7	76132	18.61	242.45
7	76565	18.71	242.45
7	76998	18.81	242.45
7	77431	18.91	242.45
7	77871	19.01	242.45
7	78304	19.11	242.45
7	78737	19.21	242.45
7	79170	19.31	242.45
7	79603	19.41	242.45
7	80036	19.51	242.45
7	80469	19.61	242.45
7	80902	19.71	242.45
7	81335	19.81	242.45
7	81768	19.91	242.45
7	82208	20.01	242.45
7	82641	20.11	242.45
7	83074	20.21	242.45
7	83507	20.31	242.45
7	83940	20.41	242.45
7	84373	20.51	242.45
7	84806	20.61	242.45
7	85239	20.71	242.45
7	85672	20.81	242.45
7	86105	20.91	242.45
7	86545	21.01	242.45
7	86978	21.11	242.45
7	87411	21.21	242.45
7	87844	21.31	242.45
7	88277	21.41	242.45
7	88710	21.51	242.45
7	89143	21.61	242.45
7	89576	21.71	242.45
7	90009	21.81	242.45
7	90442	21.91	242.45
7	90882	22.01	242.45
7	91315	22.11	242.45
7	91748	22.21	242.45
7	92181	22.31	242.45
7	92614	22.41	242.45
7	93047	22.51	242.45
7	93480	22.61	242.45
7	93913	22.71	242.45
7	94346	22.81	242.45
7	94779	22.91	242.45
7	95219	23.01	242.45
7	95652	23.11	242.45
7	96085	23.21	242.45
7	96518	23.31	242.45
7	96951	23.41	242.45
7	97384	23.51	242.45
7	97817	23.61	242.45
7	98250	23.71	242.45
7	98683	23.81	242.45
7	99116	23.91	242.45
7	99556	24.01	242.45
7	99989	24.11	242.45
7	100422	24.21	242.45
7	100855	24.31	242.45
7	101288	24.41	242.45
7	101721	24.51	242.45
7	102154	24.61	242.45
7	102587	24.71	242.45
7	103020	24.81	242.45
7	103453	24.91	242.45
7	103893	25.01	242.45
7	104326	25.11	242.45
7	104759	25.21	242.45
7	105192	25.31	242.45
7	105625	25.41	242.45
7	106058	25.51	242.45
7	106491	25.61	242.45
7	106924	25.71	242.45
7	107357	25.81	242.45
7	107790	25.91	242.45
7	108230	26.01	242.45
7	108663	26.11	242.45
7	109096	26.21	242.45
7	109529	26.31	242.45
7	109962	26.41	242.45
7	110395	26.51	242.45
7	110828	26.61	242.45
7	111261	26.71	242.45
7	111694	26.81	242.45
7	112127	26.91	242.45
7	112567	27.01	242.45
7	113000	27.11	242.45
7	113433	27.21	242.45
7	113866	27.31	242.45
7	114299	27.41	242.45
7	114732	27.51	242.45
7	115165	27.61	242.45
7	115598	27.71	242.45
7	116031	27.81	242.45
7	116464	27.91	242.45
7	116904	28.01	242.45
7	117337	28.11	242.45
7	117770	28.21	242.45
7	118203	28.31	242.45
7	118636	28.41	242.45
7	119069	28.51	242.45
7	119502	28.61	242.45
7	119935	28.71	242.45
7	120368	28.81	242.45
7	120801	28.91	242.45
7	121241	29.01	242.45
7	121674	29.11	242.45
7	122107	29.21	242.45
7	122540	29.31	242.45
7	122973	29.41	242.45
7	123406	29.51	242.45
7	123839	29.61	242.45
7	124272	29.71	242.45
7	124705	29.81	242.45
7	125138	29.91	242.45
7	125578	30.01	242.45
7	126011	30.11	242.45
7	126444	30.21	242.45
7	126877	30.31	242.45
7	127310	30.41	242.45
7	127743	30.51	242.45
7	128176	30.61	242.45
7	128609	30.71	242.45
7	129042	30.81	242.45
7	129475	30.91	242.45
7	129915	31.01	242.45
7	130348	31.11	242.45
7	130781	31.21	242.45
7	131214	31.31	242.45
7	131647	31.41	242.45
7	132080	31.51	242.45
7	132513	31.61	242.45
7	132946	31.71	242.45
7	133379	31.81	242.45
7	133812	31.91	242.45
7	134252	32.01	242.45
7	134685	32.11	242.45
7	135118	32.21	242.45
7	135551	32.31	242.45
7	135984	32.41	242.45
7	136417	32.51	242.45
7	136850	32.61	242.45
7	137283	32.71	242.45
7	137716	32.81	242.45
7	138149	32.91	242.45
7	138589	33.01	242.45
7	139022	33.11	242.45
7	139455	33.21	242.45
7	139888	33.31	242.45
7	140321	33.41	242.45
7	140754	33.51	242.45
7	141187	33.61	242.45
7	141620	33.71	242.45
7	142053	33.81	242.45
7	142486	33.91	242.45
7	142926	34.01	242.45
7	143359	34.11	242.45
7	143792	34.21	242.45
7	144225	34.31	242.45
7	144658	34.41	242.45
7	145091	34.51	242.45
7	145524	34.61	242.45
7	145957	34.71	242.45
7	146390	34.81	242.45
7	146823	34.91	242.45
7	147263	35.01	242.45
7	147696	35.11	242.45
7	148129	35.21	242.45
7	148562	35.31	242.45
7	148995	35.41	242.45
7	149428	35.51	242.45
7	149861	35.61	242.45
7	150294	35.71	242.45
7	150727	35.81	242.45
7	151160	35.91	242.45
7	151600	36.01	242.45
7	152033	36.11	242.45
7	152466	36.21	242.45
7	152899	36.31	242.45
7	153332	36.41	242.45
7	153765	36.51	242.45
7	154198	36.61	242.45
7	154631	36.71	242.45
7	155064	36.81	242.45
7	155497	36.91	242.45
7	155937	37.01	242.45
7	156370	37.11	242.45
7	156803	37.21	242.45
7	157236	37.31	242.45
7	157669	37.41	242.45
7	158102	37.51	242.45
7	158535	37.61	242.45
7	158968	37.71	242.45
7	159401	37.81	242.45
7	159834	37.91	242.45
7	160274	38.01	242.45
7	160707	38.11	242.45
7	161140	38.21	242.45
7	161573	38.31	242.45
7	162006	38.41	242.45
7	162439	38.51	242.45
7	162872	38.61	242.45
7	163305	38.71	242.45
7	163738	38.81	242.45
7	164171	38.91	242.45
7	164611	39.01	242.45
7	165044	39.11	242.45
7	165477	39.21	242.45
7	165910	39.31	242.45
7	166343	39.41	242.45
7	166776	39.51	242.45
7	167209	39.61	242.45
7	167642	39.71	242.45
7	168075	39.81	242.45
7	168508	39.91	242.45
7	168948	40.01	242.45
7	169381	40.11	242.45
7	169814	40.21	242.45
7	170247	40.31	242.45
7	170680	40.41	242.45
7	171113	40.51	242.45
7	171546	40.61	242.45
7	171979	40.71	242.45
7	172412	40.81	242.45
7	172845	40.91	242.45
7	173285	41.01	242.45
7	173718	41.11	242.45
7	174151	41.21	242.45
7	174584	41.31	242.45
7	175017	41.41	242.45
7	175450	41.51	242.45
7	175883	41.61	242.45
7	176316	41.71	242.45
7	176749	41.81	242.45
7	177182	41.91	242.45
7	177622	42.01	242.45
7	178055	42.11	242.45
7	178488	42.21	242.45
7	178921	42.31	242.45
7	179354	42.41	242.45
7	179787	42.51	242.45
7	180220	42.61	242.45
7	180653	42.71	242.45
7	181086	42.81	242.45
7	181519	42.91	242.45
7	181959	43.01	242.45
7	182392	43.11	242.45
7	182825	43.21	242.45
7	183258	43.31	242.45
7	183691	43.41	242.45
7	184124	43.51	242.45
7	184557	43.61	242.45
7	184990	43.71	242.45
7	185423	43.81	242.45
7	185856	43.91	242.45
7	186296	44.01	242.45
7	186729	44.11	242.45
7	187162	44.21	242.45
7	187595	44.31	242.45
7	188028	44.41	242.45
7	188461	44.51	242.45
7	188894	44.61	242.45
7	189327	44.71	242.45
7	189760	44.81	242.45
7	190193	44.91	242.45
7	190633	45.01	242.45
7	191066	45.11	242.45
7	191499	45.21	242.45
7	191932	45.31	242.45
7	192365	45.41	242.45
7	192798	45.51	242.45
7	193231	45.61	242.45
7	193664	45.71	242.45
7	194097	45.81	242.45
7	194530	45.91	242.45
7	194970	46.01	242.45
7	195403	46.11	242.45
7	195836	46.21	242.45
7	196269	46.31	242.45
7	196702	46.41	242.45
7	197135	46.51	242.45
7	197568	46.61	242.45
7	198001	46.71	242.45
7	198434	46.81	242.45
7	198867	46.91	242.45
7	199307	47.01	242.45
7	199740	47.11	242.45
7	200173	47.21	242.45
7	200606	47.31	242.45
7	201039	47.41	242.45
7	201472	47.51	242.45
7	201905	47.61	242.45
7	202338	47.71	242.45
7	202771	47.81	242.45
7	203204	47.91	242.45
7	203644	48.01	242.45
7	204077	48.11	242.45
7	204510	48.21	242.45
7	204943	48.31	242.45
7	205376	48.41	242.45
7	205809	48.51	242.45
7	206242	48.61	242.45
7	206675	48.71	242.45
7	207108	48.81	242.45
7	207541	48.91	242.45
7	207981	49.01	242.45
7	208414	49.11	242.45
7	208847	49.21	242.45
7	209280	49.31	242.45
7	209713	49.41	242.45
7	210146	49.51	242.45
7	210579	49.61	242.45
7	211012	49.71	242.45
7	211445	49.81	242.45
7	211878	49.91	242.45
7	212319	50.01	242.45
7	213742	50.11	242.45
7	215182	50.21	242.45
7	216691	50.31	242.45
7	218134	50.41	242.45
7	219600	50.51	242.45
7	221073	50.61	242.45
7	222508	50.71	242.45
7	223949	50.81	242.45
7	225405	50.91	242.45
7	226909	51.01	242.45
7	228395	51.11	242.45
7	229851	51.21	242.45
7	231321	51.31	242.45
7	232776	51.41	242.45
7	234231	51.51	242.45
7	235703	51.61	242.45
7	237120	51.71	242.45
7	238597	51.81	242.45
7	240085	51.91	242.45
7	241545	52.01	242.45
7	242994	52.11	242.45
7	244457	52.21	242.45
7	245906	52.31	242.45
7	247357	52.41	242.45
7	248762	52.51	242.45
7	250223	52.61	242.45
7	251690	52.71	242.45
7	253169	52.81	242.45
7	254611	52.91	242.45
7	256066	53.01	242.45
7	257554	53.11	242.45
7	258992	53.21	242.45
7	260463	53.31	242.45
7	261931	53.41	242.45
7	263406	53.51	242.45
7	264846	53.61	242.45
7	266293	53.71	242.45
7	267782	53.81	242.45
7	269206	53.91	242.45
7	270669	54.01	242.45
7	272092	54.11	242.45
7	273534	54.21	242.45
7	275017	54.31	242.45
7	276447	54.41	242.45
7	277900	54.51	242.45
7	279353	54.61	242.45
7	280854	54.71	242.45
7	282325	54.81	242.45
7	283803	54.91	242.45
7	285292	55.01	242.45
7	286758	55.11	242.45
7	288212	55.21	242.45
7	289685	55.31	242.45
7	291196	55.41	242.45
7	292656	55.51	242.45
7	294133	55.61	242.45
7	295530	55.71	242.45
7	296965	55.81	242.45
7	298447	55.91	242.45
7	299906	56.01	242.45
7	301358	56.11	242.45
7	302787	56.21	242.45
7	304217	56.31	242.45
7	305672	56.41	242.45
7	307099	56.51	242.45
7	308547	56.61	242.45
7	309990	56.71	242.45
7	311461	56.81	242.45
7	312932	56.91	242.45
7	314405	57.01	242.45
7	315869	57.11	242.45
7	317349	57.21	242.45
7	318835	57.31	242.45
7	320270	57.41	242.45
7	321684	57.51	242.45
7	323097	57.61	242.45
7	324538	57.71	242.45
7	325986	57.81	242.45
7	327443	57.91	242.45
7	328888	58.01	242.45
7	330359	58.11	242.45
7	331808	58.21	242.45
7	333293	58.31	242.45
7	334718	58.41	242.45
7	336162	58.51	242.45
7	337619	58.61	242.45
7	339079	58.71	242.45
7	340551	58.81	242.45
7	342013	58.91	242.45
7	343484	59.01	242.45
7	344968	59.11	242.45
7	346421	59.21	242.45
7	347866	59.31	242.45
7	349302	59.41	242.45
7	350781	59.51	242.45
7	352275	59.61	242.45
7	353700	59.71	242.45
7	355188	59.81	242.45
7	356652	59.91	242.45
7	358272	60.01	242.45
7	359910	60.11	242.45
7	361528	60.21	242.45
7	363187	60.31	242.45
7	364804	60.41	242.45
7	366368	60.51	242.45
7	367968	60.61	242.45
7	369627	60.71	242.45
7	371267	60.81	242.45
7	372852	60.91	242.45
7	374459	61.01	242.45
7	376082	61.11	242.45
7	377669	61.21	242.45
7	379323	61.31	242.45
7	380936	61.41	242.45
7	382514	61.51	242.45
7	384128	61.61	242.45
7	385732	61.71	242.45
7	387325	61.81	242.45
7	388916	61.91	242.45
7	390509	62.01	242.45
7	392108	62.11	242.45
7	393744	62.21	242.45
7	395348	62.31	242.45
7	396980	62.41	242.45
7	398610	62.51	242.45
7	400182	62.61	242.45
7	401769	62.71	242.45
7	403405	62.81	242.45
7	405051	62.91	242.45
7	406695	63.01	242.45
7	408343	63.11	242.45
7	409974	63.21	242.45
7	411559	63.31	242.45
7	413200	63.41	242.45
7	414855	63.51	242.45
7	416452	63.61	242.45
7	418047	63.71	242.45
7	419667	63.81	242.45
7	421276	63.91	242.45
7	422921	64.01	242.45
7	424509	64.11	242.45
7	426142	64.21	242.45
7	427793	64.31	242.45
7	429459	64.41	242.45
7	431086	64.51	242.45
7	432763	64.61	242.45
7	434417	64.71	242.45
7	436095	64.81	242.45
7	437714	64.91	242.45
7	439347	65.01	242.45
7	441016	65.11	242.45
7	442647	65.21	242.45
7	444249	65.31	242.45
7	445913	65.41	242.45
7	447533	65.51	242.45
7	449180	65.61	242.45
7	450807	65.71	242.45
7	452416	65.81	242.45
7	454009	65.91	242.45
7	455637	66.01	242.45
7	457247	66.11	242.45
7	458875	66.21	242.45
7	460513	66.31	242.45
7	462103	66.41	242.45
7	463760	66.51	242.45
7	465416	66.61	242.45
7	466996	66.71	242.45
7	468638	66.81	242.45
7	470268	66.91	242.45
7	471909	67.01	242.45
7	473569	67.11	242.45
7	475262	67.21	242.45
7	476931	67.31	242.45
7	478558	67.41	242.45
7	480221	67.51	242.45
7	481892	67.61	242.45
7	483546	67.71	242.45
7	485157	67.81	242.45
7	486800	67.91	242.45
7	488455	68.01	242.45
7	490070	68.11	242.45
7	491720	68.21	242.45
7	493373	68.31	242.45
7	495021	68.41	242.45
7	496673	68.51	242.45
7	498305	68.61	242.45
7	499938	68.71	242.45
7	501586	68.81	242.45
7	503254	68.91	242.45
7	504907	69.01	242.45
7	506559	69.11	242.45
7	508230	69.21	242.45
7	509894	69.31	242.45
7	511570	69.41	242.45
7	513204	69.51	242.45
7	514840	69.61	242.45
7	516472	69.71	242.45
7	518142	69.81	242.45
7	519777	69.91	242.45
7	521432	70.01	242.45
7	523082	70.11	242.45
7	524792	70.21	242.45
7	526457	70.31	242.45
7	528085	70.41	242.45
7	529764	70.51	242.45
7	531456	70.61	242.45
7	533143	70.71	242.45
7	534810	70.81	242.45
7	536499	70.91	242.45
7	538149	71.01	242.45
7	539773	71.11	242.45
7	541470	71.21	242.45
7	543178	71.31	242.45
7	544831	71.41	242.45
7	546530	71.51	242.45
7	548243	71.61	242.45
7	549938	71.71	242.45
7	551638	71.81	242.45
7	553279	71.91	242.45
7	554997	72.01	242.45
7	556727	72.11	242.45
7	558377	72.21	242.45
7	560086	72.31	242.45
7	561805	72.41	242.45
7	563477	72.51	242.45
7	565177	72.61	242.45
7	566887	72.71	242.45
7	568597	72.81	242.45
7	570261	72.91	242.45
7	571966	73.01	242.45
7	573686	73.11	242.45
7	575403	73.21	242.45
7	577142	73.31	242.45
7	578844	73.41	242.45
7	580543	73.51	242.45
7	582217	73.61	242.45
7	583910	73.71	242.45
7	585574	73.81	242.45
7	587279	73.91	242.45
7	589000	74.01	242.45
7	590739	74.11	242.45
7	592461	74.21	242.45
7	594178	74.31	242.45
7	595862	74.41	242.45
7	597561	74.51	242.45
7	599324	74.61	242.45
7	601032	74.71	242.45
7	602731	74.81	242.45
7	604467	74.91	242.45
7	606225	75.01	242.45
7	607954	75.11	242.45
7	609697	75.21	242.45
7	611448	75.31	242.45
7	613209	75.41	242.45
7	614986	75.51	242.45
7	616708	75.61	242.45
7	618439	75.71	242.45
7	620177	75.81	242.45
7	621932	75.91	242.45
7	623681	76.01	242.45
7	625443	76.11	242.45
7	627202	76.21	242.45
7	628932	76.31	242.45
7	630691	76.41	242.45
7	632429	76.51	242.45
7	634182	76.61	242.45
7	635911	76.71	242.45
7	637618	76.81	242.45
7	639377	76.91	242.45
7	641103	77.01	242.45
7	642848	77.11	242.45
7	644566	77.21	242.45
7	646314	77.31	242.45
7	648066	77.41	242.45
7	649824	77.51	242.45
7	651522	77.61	242.45
7	653272	77.71	242.45
7	655016	77.81	242.45
7	656747	77.91	242.45
7	658453	78.01	242.45
7	660207	78.11	242.45
7	661966	78.21	242.45
7	663727	78.31	242.45
7	665522	78.41	242.45
7	667255	78.51	242.45
7	669001	78.61	242.45
7	670781	78.71	242.45
7	672566	78.81	242.45
7	674340	78.91	242.45
7	676097	79.01	242.45
7	677886	79.11	242.45
7	679661	79.21	242.45
7	681438	79.31	242.45
7	683214	79.41	242.45
7	684994	79.51	242.45
7	686768	79.61	242.45
7	688533	79.71	242.45
7	690302	79.81	242.45
7	692079	79.91	242.45
7	693859	80.01	242.45
7	695649	80.11	242.45
7	697420	80.21	242.45
7	699217	80.31	242.45
7	700993	80.41	242.45
7	702778	80.51	242.45
7	704560	80.61	242.45
7	706346	80.71	242.45
7	708141	80.81	242.45
7	709906	80.91	242.45
7	711699	81.01	242.45
7	713485	81.11	242.45
7	715263	81.21	242.45
7	717037	81.31	242.45
7	718829	81.41	242.45
7	720610	81.51	242.45
7	722383	81.61	242.45
7	724167	81.71	242.45
7	725974	81.81	242.45
7	727780	81.91	242.45
7	729569	82.01	242.45
7	731358	82.11	242.45
7	733157	82.21	242.45
7	734937	82.31	242.45
7	736731	82.41	242.45
7	738505	82.51	242.45
7	740309	82.61	242.45
7	742111	82.71	242.45
7	743893	82.81	242.45
7	745707	82.91	242.45
7	747493	83.01	242.45
7	749275	83.11	242.45
7	751087	83.21	242.45
7	752890	83.31	242.45
7	754685	83.41	242.45
7	756476	83.51	242.45
7	758268	83.61	242.45
7	760064	83.71	242.45
7	761872	83.81	242.45
7	763678	83.91	242.45
7	765490	84.01	242.45
7	767304	84.11	242.45
7	769115	84.21	242.45
7	770877	84.31	242.45
7	772688	84.41	242.45
7	774469	84.51	242.45
7	776277	84.61	242.45
7	778068	84.71	242.45
7	779878	84.81	242.45
7	781694	84.91	242.45
7	783486	85.01	242.45
7	785256	85.11	242.45
7	787046	85.21	242.45
7	788846	85.31	242.45
7	790640	85.41	242.45
7	792461	85.51	242.45
7	794265	85.61	242.45
7	796065	85.71	242.45
7	797867	85.81	242.45
7	799699	85.91	242.45
7	801507	86.01	242.45
7	803337	86.11	242.45
7	805166	86.21	242.45
7	806983	86.31	242.45
7	808803	86.41	242.45
7	810605	86.51	242.45
7	812431	86.61	242.45
7	814252	86.71	242.45
7	816069	86.81	242.45
7	817884	86.91	242.45
7	819711	87.01	242.45
7	821519	87.11	242.45
7	823332	87.21	242.45
7	825161	87.31	242.45
7	826974	87.41	242.45
7	828795	87.51	242.45
7	830630	87.61	242.45
7	832455	87.71	242.45
7	834271	87.81	242.45
7	836044	87.91	242.45
7	837868	88.01	242.45
7	839689	88.11	242.45
7	841482	88.21	242.45
7	843300	88.31	242.45
7	845135	88.41	242.45
7	846962	88.51	242.45
7	848768	88.61	242.45
7	850588	88.71	242.45
7	852410	88.81	242.45
7	854214	88.91	242.45
7	856046	89.01	242.45
7	857886	89.11	242.45
7	859708	89.21	242.45
7	861534	89.31	242.45
7	863358	89.41	242.45
7	865168	89.51	242.45
7	867007	89.61	242.45
7	868823	89.71	242.45
7	870653	89.81	242.45
7	872474	89.91	242.45
7	874318	90.01	242.45
7	876146	90.11	242.45
7	877968	90.21	242.45
7	879802	90.31	242.45
7	881631	90.41	242.45
7	883463	90.51	242.45
7	885306	90.61	242.45
7	887138	90.71	242.45
7	888964	90.81	242.45
7	890792	90.91	242.45
7	892600	91.01	242.45
7	894440	91.11	242.45
7	896279	91.21	242.45
7	898116	91.31	242.45
7	899944	91.41	242.45
7	901771	91.51	242.45
7	903606	91.61	242.45
7	905441	91.71	242.45
7	907278	91.81	242.45
7	909111	91.91	242.45
7	910950	92.01	242.45
7	912778	92.11	242.45
7	914600	92.21	242.45
7	916418	92.31	242.45
7	918261	92.41	242.45
7	920108	92.51	242.45
7	921950	92.61	242.45
7	923791	92.71	242.45
7	925634	92.81	242.45
7	927462	92.91	242.45
7	929315	93.01	242.45
7	931138	93.11	242.45
7	932971	93.21	242.45
7	934770	93.31	242.45
7	936616	93.41	242.45
7	938462	93.51	242.45
7	940308	93.61	242.45
7	942145	93.71	242.45
7	943978	93.81	242.45
7	945825	93.91	242.45
7	947682	94.01	242.45
7	949510	94.11	242.45
7	951340	94.21	242.45
7	953178	94.31	242.45
7	955025	94.41	242.45
7	956871	94.51	242.45
7	958723	94.61	242.45
7	960566	94.71	242.45
7	962412	94.81	242.45
7	964238	94.91	242.45
7	966092	95.01	242.45
7	967948	95.11	242.45
7	969794	95.21	242.45
7	971644	95.31	242.45
7	973487	95.41	242.45
7	975326	95.51	242.45
7	977176	95.61	242.45
7	979017	95.71	242.45
7	980856	95.81	242.45
7	982693	95.91	242.45
7	984540	96.01	242.45
7	986388	96.11	242.45
7	988217	96.21	242.45
7	990062	96.31	242.45
7	991909	96.41	242.45
7	993759	96.51	242.45
7	995611	96.61	242.45
7	997463	96.71	242.45
7	999308	96.81	242.45
7	1001160	96.91	242.45
7	1003009	97.01	242.45
7	1004854	97.11	242.45
7	1006695	97.21	242.45
7	1008549	97.31	242.45
7	1010392	97.41	242.45
7	1012242	97.51	242.45
7	1014090	97.61	242.45
7	1015938	97.71	242.45
7	1017779	97.81	242.45
7	1019627	97.91	242.45
7	1021484	98.01	242.45
7	1023332	98.11	242.45
7	1025182	98.21	242.45
7	1027034	98.31	242.45
7	1028886	98.41	242.45
7	1030742	98.51	242.45
7	1032586	98.61	242.45
7	1034429	98.71	242.45
7	1036281	98.81	242.45
7	1038117	98.91	242.45
7	1039973	99.01	242.45
7	1041825	99.11	242.45
7	1043675	99.21	242.45
7	1045517	99.31	242.45
7	1047367	99.41	242.45
7	1049207	99.51	242.45
7	1051047	99.61	242.45
7	1052897	99.71	242.45
7	1054751	99.81	242.45
7	1056591	99.91	242.45
6	232	1.11	64.9402
6	666	1.21	67.7182
6	1099	1.31	70.4962
6	1533	1.41	73.2742
6	1967	1.51	76.0521
6	2400	1.61	78.8301
6	2833	1.71	81.608
6	3267	1.81	84.386
6	3700	1.91	87.1639
6	4142	2.01	89.9418
6	4575	2.11	92.7197
6	5008	2.21	95.4975
6	5441	2.31	98.2754
6	5874	2.41	101.053
6	6307	2.51	103.831
6	6740	2.61	106.609
6	7173	2.71	109.387
6	7606	2.81	112.165
6	8039	2.91	114.942
6	8479	3.01	117.72
6	8912	3.11	120.498
6	9345	3.21	123.276
6	9778	3.31	126.054
6	10211	3.41	128.831
6	10644	3.51	131.609
6	11077	3.61	134.387
6	11510	3.71	137.165
6	11943	3.81	139.942
6	12376	3.91	142.72
6	12816	4.01	145.498
6	13249	4.11	148.276
6	13682	4.21	151.053
6	14115	4.31	153.831
6	14548	4.41	156.609
6	14981	4.51	159.387
6	15414	4.61	162.165
6	15847	4.71	164.942
6	16280	4.81	167.72
6	16713	4.91	170.498
6	17153	5.01	173.276
6	17586	5.11	176.053
6	18019	5.21	178.831
6	18452	5.31	181.609
6	18885	5.41	184.387
6	19318	5.51	187.165
6	19751	5.61	189.942
6	20184	5.71	192.72
6	20617	5.81	195.498
6	21050	5.91	198.276
6	21490	6.01	201.053
6	21923	6.11	203.831
6	22356	6.21	206.609
6	22789	6.31	209.387
6	23222	6.41	212.165
6	23655	6.51	214.942
6	24088	6.61	217.72
6	24521	6.71	220.498
6	24954	6.81	223.276
6	25387	6.91	226.053
6	25827	7.01	228.831
6	26260	7.11	231.609
6	26693	7.21	234.387
6	27126	7.31	237.165
6	27559	7.41	239.942
6	27992	7.51	242.72
6	28425	7.61	245.498
6	28858	7.71	248.276
6	29291	7.81	251.053
6	29724	7.91	253.831
6	30164	8.01	256.609
6	30597	8.11	259.387
6	31030	8.21	262.165
6	31463	8.31	264.942
6	31896	8.41	267.72
6	32329	8.51	270.498
6	32762	8.61	273.276
6	33195	8.71	276.053
6	33628	8.81	278.831
6	34061	8.91	281.609
6	34501	9.01	284.387
6	34934	9.11	287.165
6	35367	9.21	289.942
6	35800	9.31	292.72
6	36233	9.41	295.498
6	36666	9.51	298.276
6	37099	9.61	301.053
6	37532	9.71	303.831
6	37965	9.81	306.609
6	38398	9.91	309.387
6	38838	10.01	312.165
6	39271	10.11	314.942
6	39704	10.21	317.72
6	40137	10.31	320.498
6	40570	10.41	323.276
6	41003	10.51	326.054
6	41436	10.61	328.831
6	41869	10.71	331.609
6	42302	10.81	334.387
6	42735	10.91	337.165
6	43175	11.01	339.942
6	43608	11.11	342.72
6	44041	11.21	345.498
6	44474	11.31	348.276
6	44907	11.41	351.054
6	45340	11.51	353.831
6	45773	11.61	356.609
6	46206	11.71	359.387
6	46639	11.81	362.165
6	47072	11.91	364.942
6	47512	12.01	367.72
6	47945	12.11	370.498
6	48378	12.21	373.276
6	48811	12.31	376.054
6	49244	12.41	378.831
6	49677	12.51	381.609
6	50110	12.61	384.387
6	50543	12.71	387.165
6	50976	12.81	389.942
6	51409	12.91	392.72
6	51849	13.01	395.498
6	52282	13.11	398.276
6	52715	13.21	401.054
6	53148	13.31	403.831
6	53581	13.41	406.609
6	54014	13.51	409.387
6	54447	13.61	412.165
6	54880	13.71	414.942
6	55313	13.81	417.72
6	55746	13.91	420.498
6	56186	14.01	423.276
6	56619	14.11	426.054
6	57052	14.21	428.831
6	57485	14.31	431.609
6	57918	14.41	434.387
6	58351	14.51	437.165
6	58784	14.61	439.942
6	59217	14.71	442.72
6	59650	14.81	445.498
6	60083	14.91	448.276
6	60523	15.01	451.054
6	60956	15.11	453.831
6	61389	15.21	456.609
6	61822	15.31	459.387
6	62255	15.41	462.165
6	62688	15.51	464.943
6	63121	15.61	467.72
6	63554	15.71	470.498
6	63987	15.81	473.276
6	64420	15.91	476.054
6	64860	16.01	478.831
6	65293	16.11	481.609
6	65726	16.21	484.387
6	66159	16.31	487.165
6	66592	16.41	489.943
6	67025	16.51	492.72
6	67458	16.61	495.498
6	67891	16.71	498.276
6	68324	16.81	501.054
6	68757	16.91	503.831
6	69197	17.01	506.609
6	69630	17.11	509.387
6	70063	17.21	512.165
6	70496	17.31	514.943
6	70929	17.41	517.72
6	71362	17.51	520.498
6	71795	17.61	523.276
6	72228	17.71	526.054
6	72661	17.81	528.831
6	73094	17.91	531.609
6	73534	18.01	534.387
6	73967	18.11	537.165
6	74400	18.21	539.943
6	74833	18.31	542.72
6	75266	18.41	545.498
6	75699	18.51	548.276
6	76132	18.61	551.054
6	76565	18.71	553.831
6	76998	18.81	556.609
6	77431	18.91	559.387
6	77871	19.01	562.165
6	78304	19.11	564.943
6	78737	19.21	567.72
6	79170	19.31	570.498
6	79603	19.41	573.276
6	80036	19.51	576.054
6	80469	19.61	578.831
6	80902	19.71	581.609
6	81335	19.81	584.387
6	81768	19.91	587.165
6	82208	20.01	589.943
6	82641	20.11	592.72
6	83074	20.21	595.498
6	83507	20.31	598.276
6	83940	20.41	601.054
6	84373	20.51	603.832
6	84806	20.61	606.609
6	85239	20.71	609.387
6	85672	20.81	612.165
6	86105	20.91	614.943
6	86545	21.01	617.72
6	86978	21.11	620.498
6	87411	21.21	623.276
6	87844	21.31	626.054
6	88277	21.41	628.832
6	88710	21.51	631.609
6	89143	21.61	634.387
6	89576	21.71	637.165
6	90009	21.81	639.943
6	90442	21.91	642.72
6	90882	22.01	645.498
6	91315	22.11	648.276
6	91748	22.21	651.054
6	92181	22.31	653.832
6	92614	22.41	656.609
6	93047	22.51	659.387
6	93480	22.61	662.165
6	93913	22.71	664.943
6	94346	22.81	667.72
6	94779	22.91	670.498
6	95219	23.01	673.276
6	95652	23.11	676.054
6	96085	23.21	678.832
6	96518	23.31	681.609
6	96951	23.41	684.387
6	97384	23.51	687.165
6	97817	23.61	689.943
6	98250	23.71	692.72
6	98683	23.81	695.498
6	99116	23.91	698.276
6	99556	24.01	701.054
6	99989	24.11	703.832
6	100422	24.21	706.609
6	100855	24.31	709.387
6	101288	24.41	712.165
6	101721	24.51	714.943
6	102154	24.61	717.72
6	102587	24.71	720.498
6	103020	24.81	723.276
6	103453	24.91	726.054
6	103893	25.01	728.832
6	104326	25.11	731.609
6	104759	25.21	734.387
6	105192	25.31	737.165
6	105625	25.41	739.943
6	106058	25.51	742.721
6	106491	25.61	745.498
6	106924	25.71	748.276
6	107357	25.81	751.054
6	107790	25.91	753.832
6	108230	26.01	756.609
[...]
81	201719	47.555223014706	6
81	202152	47.655243877383	6
81	202585	47.7552647401	6
81	203018	47.855168602856	6
81	203451	47.955189465647	6
81	203891	48.055262328478	6
81	204324	48.155205191344	6
81	204757	48.255200054247	6
81	205190	48.355259917187	6
81	205623	48.455163780162	6
81	206056	48.555262643171	6
81	206489	48.655166506216	6
81	206922	48.755239369296	6
81	207355	48.855221232409	6
81	207788	48.955203095554	6
81	208228	49.055236958735	6
81	208661	49.155205821947	6
81	209094	49.255239685193	6
81	209527	49.355169548472	6
81	209960	49.455216411783	6
81	210393	49.555224275124	6
81	210826	49.655258138495	6
81	211259	49.755227001896	6
81	211692	49.855208865327	6
81	212125	49.95524272879	6
81	212987	50.055178225052	6
81	214410	50.155236121425	6
81	215860	50.25522832715	6
81	217353	50.355186437678	6
81	218825	50.455265636212	6
81	220280	50.555228079929	6
81	221724	50.655171118064	6
81	223178	50.755204035387	6
81	224624	50.855234136684	6
81	226089	50.955178176004	6
81	227596	51.055198975216	6
81	229061	51.155166028543	6
81	230525	51.25517977506	6
81	231987	51.355181749746	6
81	233461	51.45522296966	6
81	234901	51.555176866124	6
81	236347	51.655166089496	6
81	237792	51.755243897857	6
81	239274	51.855263815365	6
81	240752	51.955237704923	6
81	242236	52.055264464371	6
81	243675	52.155185888535	6
81	245124	52.255238635163	6
81	246590	52.355265833896	6
81	248014	52.45523618051	6
81	249395	52.555262365288	6
81	250889	52.655256282941	6
81	252370	52.755232503087	6
81	253847	52.855184773723	6
81	255270	52.955173993897	6
81	256740	53.055187633376	6
81	258237	53.155194551118	6
81	259651	53.255220453756	6
81	261137	53.355187036053	6
81	262613	53.455246848294	6
81	264074	53.55520929474	6
81	265524	53.655187565545	6
81	266965	53.755231539427	6
81	268441	53.855196641235	6
81	269893	53.955258054603	6
81	271335	54.055176310923	6
81	272757	54.155185045908	6
81	274214	54.255224388186	6
81	275668	54.355221499141	6
81	277106	54.45522383896	6
81	278538	54.555262741858	6
81	280041	54.655236851705	6
81	281517	54.755225136735	6
81	283009	54.855213421782	6
81	284482	54.955189642324	6
81	285967	55.055221552857	6
81	287419	55.15525483095	6
81	288880	55.25522555504	6
81	290376	55.355249515948	6
81	291867	55.45525381898	6
81	293336	55.555182779929	6
81	294794	55.655187778262	6
81	296189	55.755221947986	6
81	297647	55.855258284569	6
81	299098	55.955263140979	6
81	300581	56.055231443031	6
81	302013	56.155215084432	6
81	303452	56.255238499786	6
81	304871	56.35518689027	6
81	306352	56.455213029655	6
81	307771	56.555213513977	6
81	309226	56.655170536252	6
81	310660	56.755249868615	6
81	312142	56.85520964549	6
81	313603	56.95518797262	6
81	315085	57.055192303897	6
81	316556	57.155173265188	6
81	318017	57.25520136738	6
81	319486	57.355230505775	6
81	320929	57.455264754445	6
81	322343	57.555185429003	6
81	323730	57.655251294125	6
81	325206	57.755183631008	6
81	326676	57.855226794345	6
81	328105	57.955167044238	6
81	329562	58.055263910672	6
81	331040	58.155195847311	6
81	332479	58.25522709726	6
81	333955	58.355211033942	6
81	335396	58.455233994409	6
81	336842	58.55522616578	6
81	338266	58.655189268234	6
81	339738	58.755169291997	6
81	341226	58.855230369608	6
81	342659	58.955254882132	6
81	344156	59.055183843854	6
81	345646	59.155245234673	6
81	347065	59.255207563419	6
81	348555	59.355199562417	6
81	349978	59.455175837494	6
81	351471	59.555205301467	6
81	352913	59.655183220612	6
81	354361	59.755206636524	6
81	355854	59.855224714321	6
81	357313	59.955176854191	6
81	358945	60.055228936633	6
81	360569	60.155260998841	6
81	362205	60.255225074843	6
81	363841	60.355200528558	6
81	365465	60.455198453179	6
81	367020	60.555195521714	6
81	368630	60.655219982956	6
81	370310	60.755204892977	6
81	371938	60.85519418807	6
81	373536	60.955248395003	6
81	375141	61.055229535505	6
81	376757	61.155259409794	6
81	378335	61.255194196217	6
81	379995	61.355247063713	6
81	381581	61.455222762858	6
81	383163	61.555202921484	6
81	384796	61.655220213657	6
81	386383	61.755255345729	6
81	387983	61.85523906365	6
81	389579	61.955252559502	6
81	391158	62.055164417477	6
81	392771	62.155193501745	6
81	394395	62.25525621759	6
81	396022	62.355259264423	6
81	397662	62.455230933125	6
81	399274	62.555246938514	6
81	400852	62.655260104594	6
81	402456	62.755207403335	6
81	404080	62.855216323988	6
81	405732	62.955183587714	6
81	407370	63.055198525005	6
81	409016	63.155178035416	6
81	410622	63.255214467455	6
81	412222	63.355189877346	6
81	413884	63.455255766736	6
81	415539	63.555216729927	6
81	417129	63.65520954248	6
81	418705	63.755221110114	6
81	420335	63.855192314206	6
81	421950	63.955195940855	6
81	423583	64.055222523692	6
81	425177	64.155266123278	6
81	426799	64.255175150291	6
81	428470	64.355173145373	6
81	430127	64.455240316729	6
81	431771	64.555169214224	6
81	433439	64.655191852107	6
81	435129	64.755253633256	6
81	436763	64.855251669651	6
81	438391	64.955234361104	6
81	440036	65.055252496751	6
81	441680	65.155253058713	6
81	443333	65.255248949266	6
81	444941	65.355201865465	6
81	446568	65.455211250431	6
81	448206	65.555259574001	6
81	449864	65.655190171974	6
81	451460	65.755212340104	6
81	453085	65.855247306255	6
81	454690	65.955260214807	6
81	456305	66.055251897581	6
81	457923	66.155225682948	6
81	459559	66.25526441593	6
81	461176	66.355203621003	6
81	462800	66.45523700312	6
81	464428	66.55519461809	6
81	466068	66.65524075492	6
81	467669	66.755215112322	6
81	469305	66.855193083514	6
81	470931	66.955198003498	6
81	472596	67.055189692823	6
81	474269	67.155177479478	6
81	475953	67.25524407452	6
81	477581	67.355247709885	6
81	479234	67.455169519936	6
81	480907	67.555212013966	6
81	482571	67.655181283169	6
81	484232	67.755250965998	6
81	485816	67.855165063288	6
81	487481	67.955242997265	6
81	489126	68.055171106488	6
81	490763	68.155176382221	6
81	492410	68.255165580892	6
81	494056	68.355217249287	6
81	495700	68.455211282622	6
81	497363	68.555167911405	6
81	498980	68.655263795887	6
81	500613	68.755168132963	6
81	502272	68.855223458316	6
81	503920	68.955235493504	6
81	505585	69.055264925382	6
81	507254	69.155228303639	6
81	508918	69.255233850685	6
81	510580	69.355187951098	6
81	512245	69.455238840746	6
81	513886	69.555224938777	6
81	515529	69.655245799763	6
81	517166	69.75525889161	6
81	518828	69.85523148849	6
81	520466	69.9552619905	6
81	522130	70.055189842195	6
81	523782	70.155195234441	6
81	525466	70.255210353385	6
81	527150	70.355211331014	6
81	528790	70.455259069057	6
81	530461	70.555211840559	6
81	532168	70.655190500903	6
81	533844	70.755245746781	6
81	535500	70.855189027339	6
81	537191	70.955264833671	6
81	538834	71.055243810726	6
81	540464	71.155170878692	6
81	542171	71.25518488606	6
81	543879	71.355227781149	6
81	545526	71.455227969192	6
81	547220	71.555167133747	6
81	548967	71.655245696475	6
81	550630	71.755235676828	6
81	552293	71.855196331178	6
81	553987	71.955232141352	6
81	555707	72.055183245494	6
81	557408	72.155230942593	6
81	559078	72.255204838381	6
81	560794	72.355172112567	6
81	562481	72.455213285967	6
81	564179	72.555234806397	6
81	565886	72.655263243596	6
81	567575	72.75525256964	6
81	569309	72.855186798485	6
81	570957	72.95523175759	6
81	572661	73.055249348398	6
81	574388	73.155235243768	6
81	576127	73.255221027989	6
81	577838	73.355245701054	6
81	579521	73.455237247887	6
81	581227	73.555245417447	6
81	582921	73.655169599579	6
81	584609	73.755232493958	6
81	586279	73.855227425842	6
81	587980	73.955225369458	6
81	589705	74.055253264429	6
81	591435	74.155228034277	6
81	593149	74.255235555423	6
81	594879	74.355258705334	6
81	596572	74.455204807811	6
81	598298	74.555203209622	6
81	600026	74.655191437659	6
81	601734	74.755228668597	6
81	603454	74.855216674317	6
81	605189	74.955237058425	6
81	606929	75.055256838532	6
81	608687	75.15520151078	6
81	610429	75.255185071874	6
81	612160	75.355168521811	6
81	613941	75.455164860594	6
81	615685	75.555197177555	6
81	617407	75.655245294022	6
81	619147	75.755182271383	6
81	620886	75.855243165527	6
81	622651	75.955251948517	6
81	624398	76.055198606376	6
81	626150	76.155171165929	6
81	627903	76.255205615446	6
81	629649	76.355224349905	6
81	631395	76.455170575988	6
81	633142	76.555243692035	6
81	634902	76.655238696924	6
81	636620	76.755260735072	6
81	638346	76.855171359063	6
81	640082	76.955258303257	6
81	641823	77.055255849538	6
81	643578	77.155250298638	6
81	645270	77.255261479114	6
81	647024	77.355190705897	6
81	648794	77.455188312195	6
81	650541	77.555182316664	6
81	652238	77.655216689467	6
81	653988	77.755197471625	6
81	655746	77.855169142616	6
81	657452	77.955248928979	6
81	659182	78.055192088726	6
81	660924	78.155260228008	6
81	662689	78.255227454369	6
81	664456	78.355217408387	6
81	666240	78.45525002508	6
81	667955	78.555254276899	6
81	669716	78.655172057516	6
81	671509	78.755233728092	6
81	673299	78.855226287514	6
81	675067	78.955220455034	6
81	676830	79.05523577704	6
81	678613	79.155215002985	6
81	680384	79.255194117774	6
81	682169	79.355264121405	6
81	683938	79.455253749822	6
81	685718	79.555180531131	6
81	687494	79.655178186185	6
81	689255	79.75525123585	6
81	691022	79.855164683685	6
81	692802	79.95516902036	6
81	694593	80.055210168938	6
81	696372	80.155244283306	6
81	698148	80.255209286516	6
81	699953	80.355242164585	6
81	701723	80.455245945477	6
81	703514	80.555191091903	6
81	705277	80.655207650484	6
81	707081	80.755266083926	6
81	708871	80.855234420188	6
81	710643	80.955170893645	6
81	712420	81.055187007606	6
81	714217	81.155220010408	6
81	715983	81.255207971481	6
81	717761	81.355174737978	6
81	719554	81.455255407302	6
81	721336	81.555221951488	6
81	723110	81.655172398497	6
81	724904	81.755237972355	6
81	726710	81.855214197045	6
81	728503	81.955259310563	6
81	730289	82.055169823047	6
81	732080	82.155184714253	6
81	733883	82.255228480317	6
81	735671	82.355181135212	6
81	737444	82.455182692935	6
81	739230	82.555171139501	6
81	741045	82.655196803723	6
81	742846	82.755185027974	6
81	744633	82.855199141066	6
81	746442	82.955239143006	6
81	748217	83.055192913397	6
81	750012	83.155232693018	6
81	751820	83.255220361483	6
81	753618	83.355259918796	6
81	755417	83.455247364951	6
81	757190	83.555237685969	6
81	759001	83.655211909812	6
81	760794	83.75523586175	6
81	762613	83.855264849299	6
81	764412	83.955199739676	6
81	766228	84.055199518907	6
81	768040	84.155251186981	6
81	769841	84.255224743899	6
81	771620	84.355215032194	6
81	773427	84.455266366805	6
81	775196	84.555187590257	6
81	777011	84.65526470255	6
81	778809	84.755263703693	6
81	780624	84.855249593677	6
81	782419	84.955225371385	6
81	784232	85.055250039061	6
81	785984	85.155226438115	6
81	787788	85.255237883486	6
81	789583	85.355184217704	6
81	791380	85.455224426774	6
81	793204	85.555248538682	6
81	794998	85.655259539445	6
81	796784	85.755221415066	6
81	798611	85.855258193513	6
81	800433	85.955215801003	6
81	802257	86.055252357139	6
81	804073	86.155162802114	6
81	805903	86.255186135941	6
81	807719	86.355183358617	6
81	809543	86.455193470136	6
81	811351	86.5551904705	6
81	813185	86.655213359712	6
81	814990	86.755210137769	6
81	816799	86.855245804663	6
81	818619	86.9551643604	6
81	820455	87.055167281671	6
81	822264	87.155202615109	6
81	824074	87.255263837393	6
81	825900	87.355168948523	6
81	827726	87.455255948494	6
81	829542	87.555212073939	6
81	831378	87.655233851598	6
81	833205	87.755190518107	6
81	835016	87.855216073457	6
81	836779	87.955215360193	6
81	838618	88.055184693238	6
81	840401	88.15516932487	6
81	842218	88.255241877857	6
81	844047	88.355262877428	6
81	845885	88.455166765841	6
81	847702	88.555187543101	6
81	849505	88.655172195222	6
81	851332	88.755192750175	6
81	853148	88.85523874739	6
81	854953	88.955246080026	6
81	856800	89.055175301503	6
81	858631	89.15524741182	6
81	860447	89.255176410987	6
81	862279	89.355261298993	6
81	864092	89.455219074716	6
81	865911	89.555202726418	6
81	867743	89.655260982598	6
81	869575	89.755163425982	6
81	871396	89.855208758213	6
81	873221	89.955214979293	6
81	875062	90.055208089224	6
81	876889	90.155253087995	6
81	878715	90.255258975612	6
81	880544	90.355199752077	6
81	882375	90.455166417393	6
81	884215	90.555197971551	6
81	886058	90.655203414549	6
81	887882	90.755260746389	6
81	889716	90.855252967073	6
81	891535	90.955232076601	6
81	893344	91.055215074965	6
81	895192	91.155206962179	6
81	897026	91.255211738241	6
81	898859	91.355177403155	6
81	900689	91.455168956909	6
81	902521	91.555173399505	6
81	904349	91.655190730945	6
81	906191	91.755194951233	6
81	908018	91.855238060362	6
81	909856	91.955242058339	6
81	911700	92.055197945158	6
81	913520	92.155201720833	6
81	915345	92.255179385356	6
81	917165	92.35522193872	6
81	919010	92.455225380932	6
81	920857	92.555189711987	6
81	922697	92.655257931886	6
81	924541	92.755222040629	6
81	926373	92.855186332705	6
81	928216	92.955176219143	6
81	930062	93.055259980421	6
81	931886	93.155253644541	6
81	933713	93.255165197512	6
81	935522	93.355233184976	6
81	937368	93.455196515636	6
81	939214	93.555198735142	6
81	941052	93.655252843493	6
81	942890	93.755163840688	6
81	944730	93.855256726725	6
81	946579	93.95521950161	6
81	948429	94.055172151328	6
81	950259	94.155225703898	6
81	952089	94.255175145312	6
81	953925	94.355176475572	6
81	955777	94.455203694675	6
81	957625	94.555217802624	6
81	959472	94.655218799417	6
81	961318	94.755193685063	6
81	963151	94.855208124566	6
81	964992	94.955234787897	6
81	966846	95.055196340069	6
81	968698	95.155170781088	6
81	970548	95.25518411096	6
81	972398	95.355197329683	6
81	974239	95.455236437256	6
81	976076	95.55523643367	6
81	977921	95.655262318931	6
81	979760	95.755239079001	6
81	981605	95.855264741958	6
81	983440	95.955186393212	6
81	985294	96.055224833877	6
81	987128	96.155263163386	6
81	988971	96.255197381738	6
81	990811	96.355183488934	6
81	992663	96.455221484971	6
81	994513	96.555168369848	6
81	996365	96.655167143572	6
81	998212	96.755217806145	6
81	1000062	96.85524235757	6
81	1001914	96.955162797849	6
81	1003756	97.055213126974	6
81	1005603	97.155172344944	6
81	1007449	97.255248451757	6
81	1009301	97.355207447414	6
81	1011146	97.455205331918	6
81	1012996	97.555190105262	6
81	1014840	97.655226767456	6
81	1016683	97.755225520776	6
81	1018531	97.855261960664	6
81	1020379	97.955194289401	6
81	1022236	98.055230506989	6
81	1024086	98.155201613429	6
81	1025936	98.255198608716	6
81	1027788	98.355221492852	6
81	1029640	98.455244265842	6
81	1031494	98.555227927685	6
81	1033338	98.655172478378	6
81	1035183	98.755233917927	6
81	1037030	98.855165246331	6
81	1038871	98.955265463592	6
81	1040727	99.055170569708	6
81	1042579	99.15525756468	6
81	1044429	99.255214448503	6
81	1046271	99.355210221174	6
81	1048111	99.4551798827	6
81	1049956	99.555188433084	6
81	1051801	99.655170872321	6
81	1053651	99.755231200413	6
81	1055500	99.85525393273	6
81	1057343	99.955236038518	6
112	4022	2	0
112	8360	3	0
112	12697	4	0
112	17034	5	0
112	21371	6	0
112	25708	7	0
112	30045	8	0
112	34382	9	0
112	38719	10	0
112	43056	11	0
112	47393	12	0
112	51730	13	0
112	56067	14	0
112	60404	15	0
112	64741	16	0
112	69078	17	0
112	73415	18	0
112	77752	19	0
112	82089	20	0
112	86426	21	0
112	90763	22	0
112	95100	23	0
112	99437	24	0
112	103774	25	0
112	108111	26	0
112	112448	27	0
112	116785	28	0
112	121122	29	0
112	125459	30	0
112	129796	31	0
112	134133	32	0
112	138470	33	0
112	142807	34	0
112	147144	35	0
112	151481	36	0
112	155818	37	0
112	160155	38	0
112	164492	39	0
112	168829	40	0
112	173166	41	0
112	177503	42	0
112	181840	43	0
112	186177	44	0
112	190514	45	0
112	194851	46	0
112	199188	47	0
112	203525	48	0
112	207862	49	0
112	212200	50	0
112	226561	51	0
112	241240	52	0
112	255731	53	0
112	270356	54	0
112	284940	55	0
112	299570	56	0
112	314101	57	0
112	328578	58	0
112	343142	59	0
112	357767	60	0
112	374004	61	0
112	390022	62	0
112	406202	63	0
112	422409	64	0
112	438854	65	0
112	455155	66	0
112	471418	67	0
112	487960	68	0
112	504401	69	0
112	520925	70	0
112	537661	71	0
112	554485	72	0
112	571452	73	0
112	588486	74	0
112	605690	75	0
112	623160	76	0
112	640572	77	0
112	657932	78	0
112	675568	79	0
112	693326	80	0
112	711163	81	0
112	729026	82	0
112	746959	83	0
112	764944	84	0
112	782947	85	0
112	800964	86	0
112	819158	87	0
112	837318	88	0
112	855501	89	0
112	873763	90	0
112	892067	91	0
112	910402	92	0
112	928762	93	0
112	947125	94	0
112	965540	95	0
112	983983	96	0
112	1002452	97	0
112	1020925	98	0
112	1039419	99	0
112	1057889	100	0
111	4022	2	0.030265
111	8360	3	0.03473
111	12697	4	0.03473
111	17034	5	0.03473
111	21371	6	0.03473
111	25708	7	0.03473
111	30045	8	0.03473
111	34382	9	0.03473
111	38719	10	0.03473
111	43056	11	0.03473
111	47393	12	0.03473
111	51730	13	0.03473
111	56067	14	0.03473
111	60404	15	0.03473
111	64741	16	0.03473
111	69078	17	0.03473
111	73415	18	0.03473
111	77752	19	0.03473
111	82089	20	0.03473
111	86426	21	0.03473
111	90763	22	0.03473
111	95100	23	0.03473
111	99437	24	0.03473
111	103774	25	0.03473
111	108111	26	0.03473
111	112448	27	0.03473
111	116785	28	0.03473
111	121122	29	0.03473
111	125459	30	0.03473
111	129796	31	0.03473
111	134133	32	0.03473
111	138470	33	0.03473
111	142807	34	0.03473
111	147144	35	0.03473
111	151481	36	0.03473
111	155818	37	0.03473
111	160155	38	0.03473
111	164492	39	0.03473
111	168829	40	0.03473
111	173166	41	0.03473
111	177503	42	0.03473
111	181840	43	0.03473
111	186177	44	0.03473
111	190514	45	0.03473
111	194851	46	0.03473
111	199188	47	0.03473
111	203525	48	0.03473
111	207862	49	0.03473
111	212200	50	0.03473
111	226561	51	0.138458
111	241240	52	0.150834
111	255731	53	0.150754
111	270356	54	0.14657
111	284940	55	0.149426
111	299570	56	0.137546
111	314101	57	0.14177
111	328578	58	0.14417
111	343142	59	0.151786
111	357767	60	0.14421
111	374004	61	0.156044
111	390022	62	0.148804
111	406202	63	0.1541
111	422409	64	0.156004
111	438854	65	0.15414
111	455155	66	0.156004
111	471418	67	0.158364
111	487960	68	0.165068000002
111	504401	69	0.167924000003
111	520925	70	0.164572000002
111	537661	71	0.16362
111	554485	72	0.172644
111	571452	73	0.165068
111	588486	74	0.16838
111	605690	75	0.168876
111	623160	76	0.178892
111	640572	77	0.176492
111	657932	78	0.179804
111	675568	79	0.175084
111	693326	80	0.179844
111	711163	81	0.179844
111	729026	82	0.181748
111	746959	83	0.17794
111	764944	84	0.183652
111	782947	85	0.179348
111	800964	86	0.181252
111	819158	87	0.185556
111	837318	88	0.18506
111	855501	89	0.183652
111	873763	90	0.185556
111	892067	91	0.185556
111	910402	92	0.185556
111	928762	93	0.18746
111	947125	94	0.183652
111	965540	95	0.185556
111	983983	96	0.185556
111	1002452	97	0.18746
111	1020925	98	0.18746
111	1039419	99	0.186508
111	1057889	100	0.18746
110	4022	2	6
110	8360	3	6
110	12697	4	6
110	17034	5	6
110	21371	6	6
110	25708	7	6
110	30045	8	6
110	34382	9	6
110	38719	10	6
110	43056	11	6
110	47393	12	6
110	51730	13	6
110	56067	14	6
110	60404	15	6
110	64741	16	6
110	69078	17	6
110	73415	18	6
110	77752	19	6
110	82089	20	6
110	86426	21	6
110	90763	22	6
110	95100	23	6
110	99437	24	6
110	103774	25	6
110	108111	26	6
110	112448	27	6
110	116785	28	6
110	121122	29	6
110	125459	30	6
110	129796	31	6
110	134133	32	6
110	138470	33	6
110	142807	34	6
110	147144	35	6
110	151481	36	6
110	155818	37	6
110	160155	38	6
110	164492	39	6
110	168829	40	6
110	173166	41	6
110	177503	42	6
110	181840	43	6
110	186177	44	6
110	190514	45	6
110	194851	46	6
110	199188	47	6
110	203525	48	6
110	207862	49	6
110	212200	50	6
110	226561	51	6
110	241240	52	6
110	255731	53	6
110	270356	54	6
110	284940	55	6
110	299570	56	6
110	314101	57	6
110	328578	58	6
110	343142	59	6
110	357767	60	6
110	374004	61	6
110	390022	62	6
110	406202	63	6
110	422409	64	6
110	438854	65	6
110	455155	66	6
110	471418	67	6
110	487960	68	6
110	504401	69	6
110	520925	70	6
110	537661	71	6
110	554485	72	6
110	571452	73	6
110	588486	74	6
110	605690	75	6
110	623160	76	6
110	640572	77	6
110	657932	78	6
110	675568	79	6
110	693326	80	6
110	711163	81	6
110	729026	82	6
110	746959	83	6
110	764944	84	6
110	782947	85	6
110	800964	86	6
110	819158	87	6
110	837318	88	6
110	855501	89	6
110	873763	90	6
110	892067	91	6
110	910402	92	6
110	928762	93	6
110	947125	94	6
110	965540	95	6
110	983983	96	6
110	1002452	97	6
110	1020925	98	6
110	1039419	99	6
110	1057889	100	6

