version 2
run NBCACC8mpsConf2-0-20210127-01:59:39-21716
attr configname NBCACC8mpsConf2
attr datetime 20210127-01:59:39
attr experiment NBCACC8mpsConf2
attr inifile CEBModule.ini
attr iterationvars "$nCars=7, $platoonSize=7, $nLanes=1, $humanCars=400, $humanLanes=3, $caccSpacing=3.0, $ploegH=0.5, $leaderHeadway=1.2, $leaderSpeed=100, $beaconInterval=0.1, $priority=4, $packetSize=200"
attr iterationvarsf nCars=7,platoonSize=7,nLanes=1,humanCars=400,humanLanes=3,caccSpacing=3.0,ploegH=0.5,leaderHeadway=1.2,leaderSpeed=100,beaconInterval=0.1,priority=4,packetSize=200-
attr measurement "$nCars=7, $platoonSize=7, $nLanes=1, $humanCars=400, $humanLanes=3, $caccSpacing=3.0, $ploegH=0.5, $leaderHeadway=1.2, $leaderSpeed=100, $beaconInterval=0.1, $priority=4, $packetSize=200"
attr network Highway
attr processid 21716
attr repetition 0
attr replication #0
attr resultdir results
attr runnumber 0
attr seedset 0
itervar beaconInterval 0.1
itervar caccSpacing 3.0
itervar humanCars 400
itervar humanLanes 3
itervar leaderHeadway 1.2
itervar leaderSpeed 100
itervar nCars 7
itervar nLanes 1
itervar packetSize 200
itervar platoonSize 7
itervar ploegH 0.5
itervar priority 4
param *.manager.useGui false
param *.node[*].scenario_type "\"BrakingScenario\""
param *.node[*].prot.isRelayEnabled true
param *.node[*].runtimeManager.rmEnabled false
param *.node[*].prot.isCoopEmBrkEnabled true
param *.node[*].prot.isNBEnabled true
param *.node[*].prot.decelarationRate "8 mpsps"
param *.node[*].prot.brakeAtTime 60s
param *.node[*].prot.speedOfLeader 100kmph
param *.node[*].prot.DENMInterval 0.1s
param *.node[*].scenario.leaderOscillationFrequency "0.2 Hz"
param *.playgroundSizeX 65000m
param *.playgroundSizeY 25000m
param *.playgroundSizeZ 50m
param **.debug false
param **.coreDebug false
param *.annotations.draw false
param *.obstacles.debug false
param *.world.useTorus false
param *.world.use2D false
param *.manager.updateInterval 0.01s
param *.manager.host "\"localhost\""
param *.manager.moduleType "\"vtypeauto=org.car2x.veins.modules.application.platooning.PlatoonCar vtypehuman=HumanCar\""
param *.manager.moduleName "\"vtypeauto=node vtypehuman=human\""
param *.manager.moduleDisplayString "\"\""
param *.manager.autoShutdown true
param *.manager.margin 25
param *.connectionManager.sendDirect true
param *.connectionManager.maxInterfDist 2600m
param *.connectionManager.drawMaxIntfDist false
param *.**.nic.mac1609_4.useServiceChannel false
param *.**.nic.mac1609_4.txPower 100mW
param *.**.nic.mac1609_4.bitrate 6Mbps
param *.**.nic.phy80211p.sensitivity -94dBm
param *.**.nic.phy80211p.maxTXPower 100mW
param *.**.nic.phy80211p.useThermalNoise true
param *.**.nic.phy80211p.thermalNoise -95dBm
param *.**.nic.phy80211p.decider "xmldoc(\"config.xml\")"
param *.**.nic.phy80211p.analogueModels "xmldoc(\"config.xml\")"
param *.**.nic.phy80211p.usePropagationDelay true
param *.node[*].mobility.x 0
param *.node[*].mobility.y 0
param *.node[*].mobility.z 1.895
param *.human[*].mobility.x 0
param *.human[*].mobility.y 0
param *.human[*].mobility.z 1.895
param **.seed 0
param *.manager.configFile "\"./sumocfg/freeway.sumo.cfg\""
param *.node[*].scenario.vehicleFile "\"./sumocfg/vehicles.xml\""
param **.numberOfCars 7
param **.numberOfCarsPerPlatoon 7
param **.numberOfLanes 1
param **.numberOfHumanCars 400
param **.numberOfHumanLanes 3
param *.node[*].helper_type "\"PositionHelper\""
param *.node[*].helper.nLanes 1
param *.node[*].helper.platoonSize 7
param *.node[*].helper.nCars 7
param *.node[*].scenario.caccSpacing 3.0m
param *.node[*].scenario.caccC1 0.5
param *.node[*].scenario.caccXi 1
param *.node[*].scenario.caccOmegaN "0.2 Hz"
param *.node[*].scenario.engineTau "0.5 s"
param *.node[*].scenario.ploegH 0.5s
param *.node[*].scenario.ploegKp 0.2
param *.node[*].scenario.ploegKd 0.7
param *.node[*].scenario.useRealisticEngine false
param **.numericController 1
param *.node[*].scenario.controller "\"CACC\""
param **.headway 0.5s
param *.node[*].scenario.accHeadway 0.5s
param *.node[*].scenario.leaderHeadway 1.2s
param *.node[*].scenario.leaderSpeed 100kmph
param *.node[*].appl_type "\"SimplePlatooningApp\""
param *.node[*].protocol_type "\"SimplePlatooningBeaconing\""
param *.node[*].prot.beaconingInterval 0.1s
param *.node[*].prot.priority 4
param *.node[*].prot.packetSize 200
param *.node[*].prot.ackPacketSize 50
param *.node[*].prot.useControllerAcceleration true
param *.node[*].unicast.packetLossRate 0.0
param *.human[*].prot.beaconingInterval ".02 s"
param *.human[*].prot.priority 4
param *.human[*].prot.packetSize 200
param *.human[*].prot.txPower "100 mW"
param *.human[*].prot.bitrate "3 Mbps"
param **.traffic_type "\"PlatoonsPlusHumanTraffic\""
param **.traffic.platoonInsertTime "1 s"
param **.traffic.humanInsertTime "50 s"
param **.traffic.platoonInsertSpeed 100kmph
param **.traffic.nCars 7
param **.traffic.humanCars 400
param **.traffic.platoonSize 7
param **.traffic.nLanes 1
param **.traffic.humanLanes 3
param **.traffic.platooningVType "\"vtypeauto\""
param **.traffic.humanVType "\"vtypehuman\""
param **.traffic.platoonInsertDistance 3.0m
param **.traffic.platoonInsertHeadway 0s
param **.traffic.platoonLeaderHeadway 1.2s

vector 0 Highway.node[0].appl distance ETV
vector 1 Highway.node[0].appl relativeSpeed ETV
vector 2 Highway.node[0].appl nodeId ETV
vector 3 Highway.node[0].appl acceleration ETV
vector 4 Highway.node[0].appl controllerAcceleration ETV
vector 5 Highway.node[0].appl speed ETV
vector 6 Highway.node[0].appl posx ETV
vector 7 Highway.node[0].appl posy ETV
vector 8 Highway.node[1].appl distance ETV
vector 9 Highway.node[1].appl relativeSpeed ETV
vector 10 Highway.node[1].appl nodeId ETV
vector 11 Highway.node[1].appl acceleration ETV
vector 12 Highway.node[1].appl controllerAcceleration ETV
vector 13 Highway.node[1].appl speed ETV
vector 14 Highway.node[1].appl posx ETV
vector 15 Highway.node[1].appl posy ETV
vector 16 Highway.node[2].appl distance ETV
vector 17 Highway.node[2].appl relativeSpeed ETV
vector 18 Highway.node[2].appl nodeId ETV
vector 19 Highway.node[2].appl acceleration ETV
vector 20 Highway.node[2].appl controllerAcceleration ETV
vector 21 Highway.node[2].appl speed ETV
vector 22 Highway.node[2].appl posx ETV
vector 23 Highway.node[2].appl posy ETV
vector 24 Highway.node[3].appl distance ETV
vector 25 Highway.node[3].appl relativeSpeed ETV
vector 26 Highway.node[3].appl nodeId ETV
vector 27 Highway.node[3].appl acceleration ETV
vector 28 Highway.node[3].appl controllerAcceleration ETV
vector 29 Highway.node[3].appl speed ETV
vector 30 Highway.node[3].appl posx ETV
vector 31 Highway.node[3].appl posy ETV
vector 32 Highway.node[4].appl distance ETV
vector 33 Highway.node[4].appl relativeSpeed ETV
vector 34 Highway.node[4].appl nodeId ETV
vector 35 Highway.node[4].appl acceleration ETV
vector 36 Highway.node[4].appl controllerAcceleration ETV
vector 37 Highway.node[4].appl speed ETV
vector 38 Highway.node[4].appl posx ETV
vector 39 Highway.node[4].appl posy ETV
vector 40 Highway.node[5].appl distance ETV
vector 41 Highway.node[5].appl relativeSpeed ETV
vector 42 Highway.node[5].appl nodeId ETV
vector 43 Highway.node[5].appl acceleration ETV
vector 44 Highway.node[5].appl controllerAcceleration ETV
vector 45 Highway.node[5].appl speed ETV
vector 46 Highway.node[5].appl posx ETV
vector 47 Highway.node[5].appl posy ETV
vector 48 Highway.node[6].appl distance ETV
vector 49 Highway.node[6].appl relativeSpeed ETV
vector 50 Highway.node[6].appl nodeId ETV
vector 51 Highway.node[6].appl acceleration ETV
vector 52 Highway.node[6].appl controllerAcceleration ETV
vector 53 Highway.node[6].appl speed ETV
vector 54 Highway.node[6].appl posx ETV
vector 55 Highway.node[6].appl posy ETV
vector 56 Highway.node[3].prot frontDelay ETV
vector 57 Highway.node[3].prot frontDelayId ETV
vector 58 Highway.node[3].prot frontTransmissionN ETV
vector 59 Highway.node[2].prot frontDelay ETV
vector 60 Highway.node[2].prot frontDelayId ETV
vector 61 Highway.node[2].prot frontTransmissionN ETV
vector 62 Highway.node[1].prot leaderDelay ETV
vector 63 Highway.node[1].prot leaderDelayId ETV
vector 64 Highway.node[1].prot leaderTransmissionN ETV
vector 65 Highway.node[1].prot frontDelay ETV
vector 66 Highway.node[1].prot frontDelayId ETV
vector 67 Highway.node[1].prot frontTransmissionN ETV
vector 68 Highway.node[2].prot leaderDelay ETV
vector 69 Highway.node[2].prot leaderDelayId ETV
vector 70 Highway.node[2].prot leaderTransmissionN ETV
vector 71 Highway.node[3].prot leaderDelay ETV
vector 72 Highway.node[3].prot leaderDelayId ETV
vector 73 Highway.node[3].prot leaderTransmissionN ETV
vector 74 Highway.node[4].prot leaderDelay ETV
vector 75 Highway.node[4].prot leaderDelayId ETV
vector 76 Highway.node[4].prot leaderTransmissionN ETV
vector 77 Highway.node[5].prot leaderDelay ETV
vector 78 Highway.node[5].prot leaderDelayId ETV
vector 79 Highway.node[5].prot leaderTransmissionN ETV
vector 80 Highway.node[6].prot leaderDelay ETV
vector 81 Highway.node[6].prot leaderDelayId ETV
vector 82 Highway.node[6].prot leaderTransmissionN ETV
vector 83 Highway.node[5].prot frontDelay ETV
vector 84 Highway.node[5].prot frontDelayId ETV
vector 85 Highway.node[5].prot frontTransmissionN ETV
vector 86 Highway.node[4].prot frontDelay ETV
vector 87 Highway.node[4].prot frontDelayId ETV
vector 88 Highway.node[4].prot frontTransmissionN ETV
vector 89 Highway.node[6].prot frontDelay ETV
vector 90 Highway.node[6].prot frontDelayId ETV
vector 91 Highway.node[6].prot frontTransmissionN ETV
vector 92 Highway.node[0].prot nodeId ETV
vector 93 Highway.node[0].prot busyTime ETV
vector 94 Highway.node[0].prot collisions ETV
vector 95 Highway.node[1].prot nodeId ETV
vector 96 Highway.node[1].prot busyTime ETV
vector 97 Highway.node[1].prot collisions ETV
vector 98 Highway.node[2].prot nodeId ETV
vector 99 Highway.node[2].prot busyTime ETV
vector 100 Highway.node[2].prot collisions ETV
vector 101 Highway.node[3].prot nodeId ETV
vector 102 Highway.node[3].prot busyTime ETV
vector 103 Highway.node[3].prot collisions ETV
vector 104 Highway.node[4].prot nodeId ETV
vector 105 Highway.node[4].prot busyTime ETV
vector 106 Highway.node[4].prot collisions ETV
vector 107 Highway.node[5].prot nodeId ETV
vector 108 Highway.node[5].prot busyTime ETV
vector 109 Highway.node[5].prot collisions ETV
vector 110 Highway.node[6].prot nodeId ETV
vector 111 Highway.node[6].prot busyTime ETV
vector 112 Highway.node[6].prot collisions ETV
vector 113 Highway.node[1].prot firstDENMDelay ETV
vector 114 Highway.node[1].prot noOfRetransmissions ETV
vector 115 Highway.node[5].prot firstDENMDelay ETV
vector 116 Highway.node[5].prot noOfRetransmissions ETV
vector 117 Highway.node[2].prot firstDENMDelay ETV
vector 118 Highway.node[2].prot noOfRetransmissions ETV
vector 119 Highway.node[4].prot firstDENMDelay ETV
vector 120 Highway.node[4].prot noOfRetransmissions ETV
vector 121 Highway.node[3].prot firstDENMDelay ETV
vector 122 Highway.node[3].prot noOfRetransmissions ETV
vector 123 Highway.node[0].prot firstDENMDelay ETV
vector 124 Highway.node[0].prot noOfRetransmissions ETV
vector 125 Highway.node[6].prot firstDENMDelay ETV
vector 126 Highway.node[6].prot noOfRetransmissions ETV
4	232	1.11	-0.00218518
4	663	1.21	-0.00213419
4	1096	1.31	-0.00205408
4	1530	1.41	-0.00195152
4	1958	1.51	-0.00183238
4	2391	1.61	-0.00170178
4	2818	1.71	-0.00156412
4	3252	1.81	-0.00142314
4	3685	1.91	-0.00128196
4	4121	2.01	-0.00114315
4	4554	2.11	-0.00100877
4	4981	2.21	-0.000880447
4	5414	2.31	-0.000759381
4	5835	2.41	-0.000646445
4	6268	2.51	-0.000542204
4	6701	2.61	-0.000446965
4	7134	2.71	-0.000360819
4	7561	2.81	-0.000283678
4	7994	2.91	-0.000215307
4	8416	3.01	-0.000155357
4	8849	3.11	-0.000103391
4	9282	3.21	-5.89069e-05
4	9709	3.31	-2.13575e-05
4	10136	3.41	9.82919e-06
4	10563	3.51	3.52368e-05
4	10957	3.61	5.54479e-05
4	11387	3.71	7.10335e-05
4	11820	3.81	8.25451e-05
4	12247	3.91	9.05081e-05
4	12687	4.01	9.54172e-05
4	13120	4.11	9.7733e-05
4	13547	4.21	9.78798e-05
4	13980	4.31	9.62447e-05
4	14410	4.41	9.31771e-05
4	14843	4.51	8.89894e-05
4	15264	4.61	8.39579e-05
4	15685	4.71	7.83245e-05
4	16118	4.81	7.22983e-05
4	16545	4.91	6.6058e-05
4	16985	5.01	5.9754e-05
4	17418	5.11	5.35107e-05
4	17851	5.21	4.74294e-05
4	18272	5.31	4.15898e-05
4	18705	5.41	3.60534e-05
4	19089	5.51	3.0865e-05
4	19522	5.61	2.60551e-05
4	19943	5.71	2.16419e-05
4	20370	5.81	1.76335e-05
4	20803	5.91	1.40289e-05
4	21243	6.01	1.08202e-05
4	21676	6.11	7.99392e-06
4	22103	6.21	5.532e-06
4	22527	6.31	3.41315e-06
4	22960	6.41	1.61374e-06
4	23348	6.51	1.08654e-07
4	23781	6.61	-1.12799e-06
4	24211	6.71	-2.12224e-06
4	24638	6.81	-2.89981e-06
4	25071	6.91	-3.48567e-06
4	25502	7.01	-3.90376e-06
4	25929	7.11	-4.17673e-06
4	26359	7.21	-4.32574e-06
4	26786	7.31	-4.3704e-06
4	27216	7.41	-4.32865e-06
4	27637	7.51	-4.21676e-06
4	28070	7.61	-4.04934e-06
4	28497	7.71	-3.83937e-06
4	28924	7.81	-3.59826e-06
4	29357	7.91	-3.33592e-06
4	29791	8.01	-3.06089e-06
4	30224	8.11	-2.78036e-06
4	30651	8.21	-2.50036e-06
4	31078	8.31	-2.22582e-06
4	31508	8.41	-1.96068e-06
4	31941	8.51	-1.708e-06
4	32371	8.61	-1.47009e-06
4	32804	8.71	-1.24855e-06
4	33225	8.81	-1.04441e-06
4	33652	8.91	-8.58219e-07
4	34086	9.01	-6.90082e-07
4	34519	9.11	-5.39774e-07
4	34952	9.21	-4.06787e-07
4	35382	9.31	-2.90396e-07
4	35815	9.41	-1.89707e-07
4	36236	9.51	-1.03704e-07
4	36669	9.61	-3.12909e-08
4	37102	9.71	2.86736e-08
4	37529	9.81	7.73515e-08
4	37962	9.91	1.15897e-07
4	38402	10.01	1.45439e-07
4	38829	10.11	1.67065e-07
4	39259	10.21	1.81809e-07
4	39692	10.31	1.90644e-07
4	40125	10.41	1.94472e-07
4	40552	10.51	1.94125e-07
4	40973	10.61	1.90358e-07
4	41406	10.71	1.83853e-07
4	41836	10.81	1.75219e-07
4	42263	10.91	1.64994e-07
4	42703	11.01	1.53647e-07
4	43118	11.11	1.41582e-07
4	43551	11.21	1.29146e-07
4	43981	11.31	1.16627e-07
4	44402	11.41	1.04266e-07
4	44829	11.51	9.22547e-08
4	45262	11.61	8.07471e-08
4	45683	11.71	6.98584e-08
4	46116	11.81	5.96732e-08
4	46546	11.91	5.02471e-08
4	46980	12.01	4.16133e-08
4	47413	12.11	3.37845e-08
4	47840	12.21	2.67558e-08
4	48273	12.31	2.05102e-08
4	48694	12.41	1.50187e-08
4	49121	12.51	1.02442e-08
4	49554	12.61	6.14406e-09
4	49978	12.71	2.67022e-09
4	50408	12.81	-2.27374e-10
4	50841	12.91	-2.60059e-09
4	51278	13.01	-4.50058e-09
4	51705	13.11	-5.97851e-09
4	52132	13.21	-7.08376e-09
4	52565	13.31	-7.86322e-09
4	52998	13.41	-8.36167e-09
4	53425	13.51	-8.62066e-09
4	53855	13.61	-8.67857e-09
4	54282	13.71	-8.57057e-09
4	54709	13.81	-8.32792e-09
4	55133	13.91	-7.97975e-09
4	55570	14.01	-7.55058e-09
4	56003	14.11	-7.06351e-09
4	56436	14.21	-6.53699e-09
4	56863	14.31	-5.98774e-09
4	57290	14.41	-5.42997e-09
4	57717	14.51	-4.87468e-09
4	58150	14.61	-4.33182e-09
4	58583	14.71	-3.80886e-09
4	59007	14.81	-3.31148e-09
4	59440	14.91	-2.84395e-09
4	59874	15.01	-2.40981e-09
4	60307	15.11	-2.01013e-09
4	60740	15.21	-1.64633e-09
4	61173	15.31	-1.31806e-09
4	61591	15.41	-1.02531e-09
4	62015	15.51	-7.66676e-10
4	62442	15.61	-5.40723e-10
4	62875	15.71	-3.46034e-10
4	63305	15.81	-1.79767e-10
4	63723	15.91	-4.01457e-11
4	64157	16.01	7.49623e-11
4	64590	16.11	1.68043e-10
4	65011	16.21	2.41585e-10
4	65444	16.31	2.97362e-10
4	65865	16.41	3.37863e-10
4	66298	16.51	3.64864e-10
4	66716	16.61	3.80851e-10
4	67143	16.71	3.86891e-10
4	67570	16.81	3.84759e-10
4	68000	16.91	3.76232e-10
4	68440	17.01	3.62377e-10
4	68873	17.11	3.44613e-10
4	69303	17.21	3.24007e-10
4	69727	17.31	3.00915e-10
4	70154	17.41	2.76756e-10
4	70581	17.51	2.52243e-10
4	71008	17.61	2.27374e-10
4	71429	17.71	2.0286e-10
4	71850	17.81	1.79057e-10
4	72268	17.91	1.56319e-10
4	72702	18.01	1.35003e-10
4	73135	18.11	1.15108e-10
4	73568	18.21	9.66338e-11
4	73995	18.31	7.99361e-11
4	74428	18.41	6.46594e-11
4	74855	18.51	5.08038e-11
4	75288	18.61	3.83693e-11
4	75721	18.71	2.73559e-11
4	76154	18.81	1.77636e-11
4	76572	18.91	9.59233e-12
4	76961	19.01	2.84217e-12
4	77391	19.11	-2.84217e-12
4	77821	19.21	-7.4607e-12
4	78236	19.31	-1.13687e-11
4	78669	19.41	-1.42109e-11
4	79096	19.51	-1.63425e-11
4	79529	19.61	-1.77636e-11
4	79956	19.71	-1.84741e-11
4	80383	19.81	-1.88294e-11
4	80816	19.91	-1.88294e-11
4	81217	20.01	-1.88294e-11
4	81650	20.11	-1.81188e-11
4	82080	20.21	-1.7053e-11
4	82513	20.31	-1.63425e-11
4	82946	20.41	-1.52767e-11
4	83376	20.51	-1.45661e-11
4	83797	20.61	-1.35003e-11
4	84227	20.71	-1.27898e-11
4	84657	20.81	-1.1724e-11
4	85084	20.91	-1.10134e-11
4	85524	21.01	-9.9476e-12
4	85933	21.11	-9.23706e-12
4	86363	21.21	-8.17124e-12
4	86796	21.31	-7.4607e-12
4	87214	21.41	-6.39488e-12
4	87647	21.51	-5.68434e-12
4	88074	21.61	-4.61853e-12
4	88501	21.71	-3.90799e-12
4	88934	21.81	-2.84217e-12
4	89364	21.91	-2.13163e-12
4	89795	22.01	-1.06581e-12
4	90228	22.11	-3.55271e-13
4	90655	22.21	7.10543e-13
4	91088	22.31	1.42109e-12
4	91512	22.41	2.13163e-12
4	91936	22.51	2.84217e-12
4	92327	22.61	3.19744e-12
4	92754	22.71	3.90799e-12
4	93187	22.81	4.26326e-12
4	93608	22.91	4.61853e-12
4	94045	23.01	5.32907e-12
4	94475	23.11	5.68434e-12
4	94908	23.21	5.68434e-12
4	95329	23.31	6.03961e-12
4	95762	23.41	6.39488e-12
4	96180	23.51	6.75016e-12
4	96613	23.61	6.75016e-12
4	97037	23.71	7.10543e-12
4	97458	23.81	7.10543e-12
4	97885	23.91	7.4607e-12
4	98322	24.01	7.4607e-12
4	98749	24.11	7.81597e-12
4	99176	24.21	7.81597e-12
4	99609	24.31	7.81597e-12
4	100042	24.41	7.81597e-12
4	100434	24.51	8.17124e-12
4	100864	24.61	8.17124e-12
4	101291	24.71	8.17124e-12
4	101724	24.81	8.17124e-12
4	102148	24.91	8.17124e-12
4	102588	25.01	8.52651e-12
4	103009	25.11	8.52651e-12
4	103442	25.21	8.52651e-12
4	103869	25.31	8.52651e-12
4	104302	25.41	8.52651e-12
4	104735	25.51	8.52651e-12
4	105156	25.61	8.52651e-12
4	105580	25.71	8.52651e-12
4	106013	25.81	8.52651e-12
4	106446	25.91	8.52651e-12
4	106886	26.01	8.88178e-12
4	107313	26.11	8.88178e-12
4	107746	26.21	8.88178e-12
4	108173	26.31	8.88178e-12
4	108603	26.41	8.88178e-12
4	109033	26.51	8.88178e-12
4	109466	26.61	8.88178e-12
4	109887	26.71	8.88178e-12
4	110320	26.81	8.88178e-12
4	110747	26.91	8.88178e-12
4	111187	27.01	8.88178e-12
4	111614	27.11	8.88178e-12
4	112041	27.21	8.88178e-12
4	112468	27.31	8.88178e-12
4	112898	27.41	8.88178e-12
4	113322	27.51	8.88178e-12
4	113737	27.61	8.88178e-12
4	114164	27.71	8.88178e-12
4	114591	27.81	8.88178e-12
4	115018	27.91	8.88178e-12
4	115458	28.01	8.88178e-12
4	115882	28.11	8.88178e-12
4	116309	28.21	8.88178e-12
4	116739	28.31	8.88178e-12
4	117172	28.41	8.88178e-12
4	117599	28.51	8.88178e-12
4	118032	28.61	8.88178e-12
4	118459	28.71	8.88178e-12
4	118883	28.81	8.88178e-12
4	119316	28.91	8.88178e-12
4	119750	29.01	8.88178e-12
4	120183	29.11	8.88178e-12
4	120575	29.21	8.88178e-12
4	120969	29.31	8.88178e-12
4	121393	29.41	8.88178e-12
4	121814	29.51	8.88178e-12
4	122244	29.61	8.88178e-12
4	122668	29.71	8.88178e-12
4	123101	29.81	8.88178e-12
4	123531	29.91	8.88178e-12
4	123959	30.01	8.88178e-12
4	124377	30.11	8.88178e-12
4	124807	30.21	8.88178e-12
4	125231	30.31	8.88178e-12
4	125661	30.41	8.88178e-12
4	126082	30.51	8.88178e-12
4	126515	30.61	8.88178e-12
4	126942	30.71	8.88178e-12
4	127369	30.81	8.88178e-12
4	127799	30.91	8.88178e-12
4	128239	31.01	8.88178e-12
4	128672	31.11	8.88178e-12
4	129105	31.21	8.88178e-12
4	129499	31.31	8.88178e-12
4	129926	31.41	8.88178e-12
4	130350	31.51	8.88178e-12
4	130777	31.61	8.88178e-12
4	131210	31.71	8.88178e-12
4	131643	31.81	8.88178e-12
4	132076	31.91	8.88178e-12
4	132516	32.01	8.88178e-12
4	132949	32.11	8.88178e-12
4	133376	32.21	8.88178e-12
4	133797	32.31	8.88178e-12
4	134224	32.41	8.88178e-12
4	134657	32.51	8.88178e-12
4	135090	32.61	8.88178e-12
4	135517	32.71	8.88178e-12
4	135950	32.81	8.88178e-12
4	136380	32.91	8.88178e-12
4	136814	33.01	8.88178e-12
4	137238	33.11	8.88178e-12
4	137659	33.21	8.88178e-12
4	138086	33.31	8.88178e-12
4	138513	33.41	8.88178e-12
4	138943	33.51	8.88178e-12
4	139370	33.61	8.88178e-12
4	139791	33.71	8.88178e-12
4	140218	33.81	8.88178e-12
4	140651	33.91	8.88178e-12
4	141091	34.01	8.88178e-12
4	141515	34.11	8.88178e-12
4	141939	34.21	8.88178e-12
4	142366	34.31	8.88178e-12
4	142799	34.41	8.88178e-12
4	143232	34.51	8.88178e-12
4	143665	34.61	8.88178e-12
4	144098	34.71	8.88178e-12
4	144525	34.81	8.88178e-12
4	144946	34.91	8.88178e-12
4	145344	35.01	8.88178e-12
4	145777	35.11	8.88178e-12
4	146201	35.21	8.88178e-12
4	146628	35.31	8.88178e-12
4	147052	35.41	8.88178e-12
4	147470	35.51	8.88178e-12
4	147900	35.61	8.88178e-12
4	148327	35.71	8.88178e-12
4	148754	35.81	8.88178e-12
4	149187	35.91	8.88178e-12
4	149621	36.01	8.88178e-12
4	150042	36.11	8.88178e-12
4	150472	36.21	8.88178e-12
4	150899	36.31	8.88178e-12
4	151329	36.41	8.88178e-12
4	151762	36.51	8.88178e-12
4	152186	36.61	8.88178e-12
4	152610	36.71	8.88178e-12
4	153040	36.81	8.88178e-12
4	153473	36.91	8.88178e-12
4	153907	37.01	8.88178e-12
4	154334	37.11	8.88178e-12
4	154764	37.21	8.88178e-12
4	155191	37.31	8.88178e-12
4	155612	37.41	8.88178e-12
4	156045	37.51	8.88178e-12
4	156466	37.61	8.88178e-12
4	156899	37.71	8.88178e-12
4	157332	37.81	8.88178e-12
4	157756	37.91	8.88178e-12
4	158187	38.01	8.88178e-12
4	158614	38.11	8.88178e-12
4	159044	38.21	8.88178e-12
4	159474	38.31	8.88178e-12
4	159901	38.41	8.88178e-12
4	160331	38.51	8.88178e-12
4	160758	38.61	8.88178e-12
4	161185	38.71	8.88178e-12
4	161609	38.81	8.88178e-12
4	162039	38.91	8.88178e-12
4	162479	39.01	8.88178e-12
4	162906	39.11	8.88178e-12
4	163324	39.21	8.88178e-12
4	163751	39.31	8.88178e-12
4	164178	39.41	8.88178e-12
4	164611	39.51	8.88178e-12
4	165044	39.61	8.88178e-12
4	165465	39.71	8.88178e-12
4	165892	39.81	8.88178e-12
4	166319	39.91	8.88178e-12
4	166759	40.01	8.88178e-12
4	167183	40.11	8.88178e-12
4	167574	40.21	8.88178e-12
4	167998	40.31	8.88178e-12
4	168431	40.41	8.88178e-12
4	168840	40.51	8.88178e-12
4	169252	40.61	8.88178e-12
4	169679	40.71	8.88178e-12
4	170103	40.81	8.88178e-12
4	170530	40.91	8.88178e-12
4	170967	41.01	8.88178e-12
4	171400	41.11	8.88178e-12
4	171833	41.21	8.88178e-12
4	172254	41.31	8.88178e-12
4	172687	41.41	8.88178e-12
4	173120	41.51	8.88178e-12
4	173553	41.61	8.88178e-12
4	173983	41.71	8.88178e-12
4	174407	41.81	8.88178e-12
4	174828	41.91	8.88178e-12
4	175256	42.01	8.88178e-12
4	175689	42.11	8.88178e-12
4	176116	42.21	8.88178e-12
4	176546	42.31	8.88178e-12
4	176979	42.41	8.88178e-12
4	177409	42.51	8.88178e-12
4	177842	42.61	8.88178e-12
4	178275	42.71	8.88178e-12
4	178708	42.81	8.88178e-12
4	179135	42.91	8.88178e-12
4	179569	43.01	8.88178e-12
4	179999	43.11	8.88178e-12
4	180432	43.21	8.88178e-12
4	180865	43.31	8.88178e-12
4	181292	43.41	8.88178e-12
4	181719	43.51	8.88178e-12
4	182149	43.61	8.88178e-12
4	182582	43.71	8.88178e-12
4	183015	43.81	8.88178e-12
4	183448	43.91	8.88178e-12
4	183888	44.01	8.88178e-12
4	184321	44.11	8.88178e-12
4	184748	44.21	8.88178e-12
4	185181	44.31	8.88178e-12
4	185599	44.41	8.88178e-12
4	186032	44.51	8.88178e-12
4	186459	44.61	8.88178e-12
4	186886	44.71	8.88178e-12
4	187319	44.81	8.88178e-12
4	187746	44.91	8.88178e-12
4	188174	45.01	8.88178e-12
4	188598	45.11	8.88178e-12
4	189031	45.21	8.88178e-12
4	189452	45.31	8.88178e-12
4	189870	45.41	8.88178e-12
4	190297	45.51	8.88178e-12
4	190721	45.61	8.88178e-12
4	191154	45.71	8.88178e-12
4	191569	45.81	8.88178e-12
4	192002	45.91	8.88178e-12
4	192436	46.01	8.88178e-12
4	192869	46.11	8.88178e-12
4	193287	46.21	8.88178e-12
4	193714	46.31	8.88178e-12
4	194147	46.41	8.88178e-12
4	194577	46.51	8.88178e-12
4	195010	46.61	8.88178e-12
4	195437	46.71	8.88178e-12
4	195870	46.81	8.88178e-12
4	196303	46.91	8.88178e-12
4	196743	47.01	8.88178e-12
4	197176	47.11	8.88178e-12
4	197567	47.21	8.88178e-12
4	197961	47.31	8.88178e-12
4	198394	47.41	8.88178e-12
4	198821	47.51	8.88178e-12
4	199254	47.61	8.88178e-12
4	199681	47.71	8.88178e-12
4	200108	47.81	8.88178e-12
4	200538	47.91	8.88178e-12
4	200972	48.01	8.88178e-12
4	201399	48.11	8.88178e-12
4	201826	48.21	8.88178e-12
4	202253	48.31	8.88178e-12
4	202680	48.41	8.88178e-12
4	203113	48.51	8.88178e-12
4	203540	48.61	8.88178e-12
4	203967	48.71	8.88178e-12
4	204400	48.81	8.88178e-12
4	204833	48.91	8.88178e-12
4	205273	49.01	8.88178e-12
4	205706	49.11	8.88178e-12
4	206133	49.21	8.88178e-12
4	206566	49.31	8.88178e-12
4	206999	49.41	8.88178e-12
4	207432	49.51	8.88178e-12
4	207862	49.61	8.88178e-12
4	208292	49.71	8.88178e-12
4	208725	49.81	8.88178e-12
4	209140	49.91	8.88178e-12
4	209581	50.01	8.88178e-12
4	1699706	50.11	8.88178e-12
4	3295187	50.21	8.88178e-12
4	4863802	50.31	8.88178e-12
4	6443896	50.41	8.88178e-12
4	8040911	50.51	8.88178e-12
4	9609753	50.61	8.88178e-12
4	11203918	50.71	8.88178e-12
4	12776406	50.81	8.88178e-12
4	14359995	50.91	8.88178e-12
4	15941015	51.01	8.88178e-12
4	17520522	51.11	8.88178e-12
4	19098175	51.21	8.88178e-12
4	20677171	51.31	8.88178e-12
4	22250446	51.41	8.88178e-12
4	23840591	51.51	8.88178e-12
4	25439308	51.61	8.88178e-12
4	26978768	51.71	8.88178e-12
4	28579413	51.81	8.88178e-12
4	30175302	51.91	8.88178e-12
4	31739965	52.01	8.88178e-12
4	33319649	52.11	8.88178e-12
4	34906924	52.21	8.88178e-12
4	36486913	52.31	8.88178e-12
4	38068076	52.41	8.88178e-12
4	39651673	52.51	8.88178e-12
4	41236520	52.61	8.88178e-12
4	42797003	52.71	8.88178e-12
4	44380951	52.81	8.88178e-12
4	45958918	52.91	8.88178e-12
4	47542673	53.01	8.88178e-12
4	49126872	53.11	8.88178e-12
4	50709026	53.21	8.88178e-12
4	52294505	53.31	8.88178e-12
4	53859284	53.41	8.88178e-12
4	55442094	53.51	8.88178e-12
4	57032871	53.61	8.88178e-12
4	58605884	53.71	8.88178e-12
4	60192263	53.81	8.88178e-12
4	61768054	53.91	8.88178e-12
4	63347641	54.01	8.88178e-12
4	64924644	54.11	8.88178e-12
4	66494665	54.21	8.88178e-12
4	68085195	54.31	8.88178e-12
4	69671044	54.41	8.88178e-12
4	71251006	54.51	8.88178e-12
4	72830338	54.61	8.88178e-12
4	74408766	54.71	8.88178e-12
4	75986855	54.81	8.88178e-12
4	77573274	54.91	8.88178e-12
4	79161034	55.01	8.88178e-12
4	80731955	55.11	8.88178e-12
4	82316909	55.21	8.88178e-12
4	83878267	55.31	8.88178e-12
4	85474300	55.41	8.88178e-12
4	87057294	55.51	8.88178e-12
4	88628936	55.61	8.88178e-12
4	90216260	55.71	8.88178e-12
4	91805155	55.81	8.88178e-12
4	93377434	55.91	8.88178e-12
4	94964825	56.01	8.88178e-12
4	96547938	56.11	8.88178e-12
4	98114745	56.21	8.88178e-12
4	99699848	56.31	8.88178e-12
4	101299079	56.41	8.88178e-12
4	102849167	56.51	8.88178e-12
4	104443144	56.61	8.88178e-12
4	106031155	56.71	8.88178e-12
4	107592271	56.81	8.88178e-12
4	109178364	56.91	8.88178e-12
4	110749974	57.01	8.88178e-12
4	112332888	57.11	8.88178e-12
4	113931125	57.21	8.88178e-12
4	115492649	57.31	8.88178e-12
4	117084367	57.41	8.88178e-12
4	118669456	57.51	8.88178e-12
4	120239651	57.61	8.88178e-12
4	121827029	57.71	8.88178e-12
4	123395207	57.81	8.88178e-12
4	124988791	57.91	8.88178e-12
4	126576840	58.01	8.88178e-12
4	128160675	58.11	8.88178e-12
4	129729343	58.21	8.88178e-12
4	131311821	58.31	8.88178e-12
4	132887444	58.41	8.88178e-12
4	134471021	58.51	8.88178e-12
4	136042972	58.61	8.88178e-12
4	137628135	58.71	8.88178e-12
4	139198283	58.81	8.88178e-12
4	140787303	58.91	8.88178e-12
4	142361510	59.01	8.88178e-12
4	143941680	59.11	8.88178e-12
4	145516138	59.21	8.88178e-12
4	147097388	59.31	8.88178e-12
4	148695670	59.41	8.88178e-12
4	150260618	59.51	8.88178e-12
4	151835462	59.61	8.88178e-12
4	153430490	59.71	8.88178e-12
4	155006614	59.81	8.88178e-12
4	156588002	59.91	8.88178e-12
4	158171652	60.01	-8
4	159741249	60.11	-8
4	161336014	60.21	-8
4	162896556	60.31	-8
4	164492151	60.41	-8
4	166085735	60.51	-8
4	167655836	60.61	-8
4	169234818	60.71	-8
4	170823076	60.81	-8
4	172394163	60.91	-8
4	173975193	61.01	-8
4	175567708	61.11	-8
4	177148249	61.21	-8
4	178728588	61.31	-8
4	180299572	61.41	-8
4	181883500	61.51	-8
4	183477243	61.61	-8
4	185049463	61.71	-8
4	186635880	61.81	-8
4	188217283	61.91	-8
4	189785674	62.01	-8
4	191370207	62.11	-8
4	192949207	62.21	-8
4	194528595	62.31	-8
4	196109886	62.41	-8
4	197694199	62.51	-8
4	199260048	62.61	-8
4	200858422	62.71	-8
4	202432712	62.81	-8
4	203999744	62.91	-8
4	205589448	63.01	-8
4	207195893	63.11	-8
4	208768097	63.21	-8
4	210359403	63.31	-8
4	211922340	63.41	-8
4	213504917	63.51	-8
4	215092938	63.61	-8
4	216670323	63.71	-8
4	218260679	63.81	-8
4	219850466	63.91	-8
4	221415857	64.01	0
4	222996850	64.11	0
4	224589864	64.21	0
4	226151879	64.31	0
4	227742012	64.41	0
4	229337264	64.51	0
4	230916563	64.61	0
4	232502103	64.71	0
4	234080615	64.81	0
4	235653006	64.91	0
4	237239030	65.01	0
4	238812586	65.11	0
4	240389698	65.21	0
4	241989899	65.31	0
4	243551116	65.41	0
4	245137890	65.51	0
4	246734588	65.61	0
4	248302268	65.71	0
4	249877062	65.81	0
4	251477285	65.91	0
4	253052093	66.01	0
4	254627629	66.11	0
4	256208850	66.21	0
4	257795093	66.31	0
4	259392029	66.41	0
4	260946625	66.51	0
4	262548463	66.61	0
4	264135497	66.71	0
4	265707939	66.81	0
4	267290058	66.91	0
4	268881535	67.01	0
4	270449677	67.11	0
4	272040477	67.21	0
4	273614250	67.31	0
4	275187318	67.41	0
4	276772861	67.51	0
4	278343582	67.61	0
4	279928906	67.71	0
4	281517858	67.81	0
4	283081399	67.91	0
4	284661025	68.01	0
4	286252661	68.11	0
4	287827996	68.21	0
4	289404704	68.31	0
4	290989198	68.41	0
4	292567972	68.51	0
4	294147609	68.61	0
4	295744559	68.71	0
4	297321953	68.81	0
4	298911721	68.91	0
4	300472924	69.01	0
4	302064943	69.11	0
4	303657290	69.21	0
4	305220726	69.31	0
4	306804498	69.41	0
4	308392740	69.51	0
4	309961098	69.61	0
4	311554590	69.71	0
4	313131168	69.81	0
4	314701114	69.91	0
3	232	1.11	-0.000358191
3	663	1.21	-0.000681704
3	1096	1.31	-0.00093487
3	1530	1.41	-0.00112579
3	1958	1.51	-0.00126221
3	2391	1.61	-0.00135149
3	2818	1.71	-0.00140049
3	3252	1.81	-0.00141557
3	3685	1.91	-0.00140255
3	4121	2.01	-0.00136671
3	4554	2.11	-0.0013128
3	4981	2.21	-0.00124502
3	5414	2.31	-0.0011671
3	5835	2.41	-0.00108223
3	6268	2.51	-0.000993208
3	6701	2.61	-0.000902362
3	7134	2.71	-0.000811651
3	7561	2.81	-0.000722679
3	7994	2.91	-0.000636729
3	8416	3.01	-0.0005548
3	8849	3.11	-0.000477639
3	9282	3.21	-0.000405773
3	9709	3.31	-0.00033954
3	10136	3.41	-0.000279116
3	10563	3.51	-0.000224541
3	10957	3.61	-0.000175743
3	11387	3.71	-0.00013256
3	11820	3.81	-9.47571e-05
3	12247	3.91	-6.2046e-05
3	12687	4.01	-3.40986e-05
3	13120	4.11	-1.05605e-05
3	13547	4.21	8.93844e-06
3	13980	4.31	2.4774e-05
3	14410	4.41	3.73203e-05
3	14843	4.51	4.69433e-05
3	15264	4.61	5.39956e-05
3	15685	4.71	5.88124e-05
3	16118	4.81	6.1709e-05
3	16545	4.91	6.29785e-05
3	16985	5.01	6.28903e-05
3	17418	5.11	6.169e-05
3	17851	5.21	5.95988e-05
3	18272	5.31	5.68144e-05
3	18705	5.41	5.35112e-05
3	19089	5.51	4.98416e-05
3	19522	5.61	4.59373e-05
3	19943	5.71	4.19105e-05
3	20370	5.81	3.78555e-05
3	20803	5.91	3.38499e-05
3	21243	6.01	2.99569e-05
3	21676	6.11	2.62259e-05
3	22103	6.21	2.26948e-05
3	22527	6.31	1.93911e-05
3	22960	6.41	1.6333e-05
3	23348	6.51	1.35314e-05
3	23781	6.61	1.09904e-05
3	24211	6.71	8.70882e-06
3	24638	6.81	6.6809e-06
3	25071	6.91	4.89747e-06
3	25502	7.01	3.3466e-06
3	25929	7.11	2.01432e-06
3	26359	7.21	8.85256e-07
3	26786	7.31	-5.68459e-08
3	27216	7.41	-8.28678e-07
3	27637	7.51	-1.44699e-06
3	28070	7.61	-1.92826e-06
3	28497	7.71	-2.28849e-06
3	28924	7.81	-2.54296e-06
3	29357	7.91	-2.7061e-06
3	29791	8.01	-2.79139e-06
3	30224	8.11	-2.8113e-06
3	30651	8.21	-2.77721e-06
3	31078	8.31	-2.69943e-06
3	31508	8.41	-2.58721e-06
3	31941	8.51	-2.44874e-06
3	32371	8.61	-2.29123e-06
3	32804	8.71	-2.12092e-06
3	33225	8.81	-1.94317e-06
3	33652	8.91	-1.7625e-06
3	34086	9.01	-1.58267e-06
3	34519	9.11	-1.40677e-06
3	34952	9.21	-1.23723e-06
3	35382	9.31	-1.07596e-06
3	35815	9.41	-9.24364e-07
3	36236	9.51	-7.83424e-07
3	36669	9.61	-6.53753e-07
3	37102	9.71	-5.35652e-07
3	37529	9.81	-4.2916e-07
3	37962	9.91	-3.34103e-07
3	38402	10.01	-2.5013e-07
3	38829	10.11	-1.76757e-07
3	39259	10.21	-1.13395e-07
3	39692	10.31	-5.93825e-08
3	40125	10.41	-1.40084e-08
3	40552	10.51	2.34657e-08
3	40973	10.61	5.3787e-08
3	41406	10.71	7.76954e-08
3	41836	10.81	9.59155e-08
3	42263	10.91	1.09142e-07
3	42703	11.01	1.18035e-07
3	43118	11.11	1.23212e-07
3	43551	11.21	1.2525e-07
3	43981	11.31	1.24675e-07
3	44402	11.41	1.21968e-07
3	44829	11.51	1.17559e-07
3	45262	11.61	1.11834e-07
3	45683	11.71	1.05132e-07
3	46116	11.81	9.77476e-08
3	46546	11.91	8.99373e-08
3	46980	12.01	8.19171e-08
3	47413	12.11	7.38677e-08
3	47840	12.21	6.59401e-08
3	48273	12.31	5.82538e-08
3	48694	12.41	5.09036e-08
3	49121	12.51	4.39606e-08
3	49554	12.61	3.74765e-08
3	49978	12.71	3.14852e-08
3	50408	12.81	2.60055e-08
3	50841	12.91	2.10438e-08
3	51278	13.01	1.65958e-08
3	51705	13.11	1.26498e-08
3	52132	13.21	9.18554e-09
3	52565	13.31	6.17888e-09
3	52998	13.41	3.60174e-09
3	53425	13.51	1.42322e-09
3	53855	13.61	-3.90088e-10
3	54282	13.71	-1.8705e-09
3	54709	13.81	-3.05107e-09
3	55133	13.91	-3.96518e-09
3	55570	14.01	-4.64375e-09
3	56003	14.11	-5.11768e-09
3	56436	14.21	-5.41434e-09
3	56863	14.31	-5.56071e-09
3	57290	14.41	-5.58096e-09
3	57717	14.51	-5.49747e-09
3	58150	14.61	-5.33085e-09
3	58583	14.71	-5.09743e-09
3	59007	14.81	-4.81464e-09
3	59440	14.91	-4.49667e-09
3	59874	15.01	-4.15525e-09
3	60307	15.11	-3.80034e-09
3	60740	15.21	-3.44151e-09
3	61173	15.31	-3.08518e-09
3	61591	15.41	-2.73772e-09
3	62015	15.51	-2.40306e-09
3	62442	15.61	-2.08544e-09
3	62875	15.71	-1.78773e-09
3	63305	15.81	-1.51132e-09
3	63723	15.91	-1.25766e-09
3	64157	16.01	-1.02673e-09
3	64590	16.11	-8.18901e-10
3	65011	16.21	-6.33804e-10
3	65444	16.31	-4.70735e-10
3	65865	16.41	-3.28271e-10
3	66298	16.51	-2.05702e-10
3	66716	16.61	-1.00897e-10
3	67143	16.71	-1.35003e-11
3	67570	16.81	5.82645e-11
3	68000	16.91	1.16174e-10
3	68440	17.01	1.61648e-10
3	68873	17.11	1.95755e-10
3	69303	17.21	2.20624e-10
3	69727	17.31	2.36966e-10
3	70154	17.41	2.45848e-10
3	70581	17.51	2.4869e-10
3	71008	17.61	2.46914e-10
3	71429	17.71	2.40874e-10
3	71850	17.81	2.31282e-10
3	72268	17.91	2.19913e-10
3	72702	18.01	2.05702e-10
3	73135	18.11	1.91491e-10
3	73568	18.21	1.7657e-10
3	73995	18.31	1.59872e-10
3	74428	18.41	1.44595e-10
3	74855	18.51	1.30385e-10
3	75288	18.61	1.16174e-10
3	75721	18.71	1.01963e-10
3	76154	18.81	8.7752e-11
3	76572	18.91	7.35412e-11
3	76961	19.01	6.21725e-11
3	77391	19.11	5.15143e-11
3	77821	19.21	4.08562e-11
3	78236	19.31	3.16192e-11
3	78669	19.41	2.45137e-11
3	79096	19.51	1.74083e-11
3	79529	19.61	1.03029e-11
3	79956	19.71	6.03961e-12
3	80383	19.81	2.4869e-12
3	80816	19.91	-1.06581e-12
3	81217	20.01	-4.61853e-12
3	81650	20.11	-8.17124e-12
3	82080	20.21	-8.88178e-12
3	82513	20.31	-8.88178e-12
3	82946	20.41	-8.88178e-12
3	83376	20.51	-8.88178e-12
3	83797	20.61	-8.88178e-12
3	84227	20.71	-8.88178e-12
3	84657	20.81	-8.88178e-12
3	85084	20.91	-8.88178e-12
3	85524	21.01	-8.88178e-12
3	85933	21.11	-8.88178e-12
3	86363	21.21	-8.88178e-12
3	86796	21.31	-8.88178e-12
3	87214	21.41	-8.88178e-12
3	87647	21.51	-8.88178e-12
3	88074	21.61	-8.88178e-12
3	88501	21.71	-8.88178e-12
3	88934	21.81	-8.88178e-12
3	89364	21.91	-8.88178e-12
3	89795	22.01	-8.88178e-12
3	90228	22.11	-8.88178e-12
3	90655	22.21	-8.17124e-12
3	91088	22.31	-7.4607e-12
3	91512	22.41	-6.75016e-12
3	91936	22.51	-6.03961e-12
3	92327	22.61	-5.68434e-12
3	92754	22.71	-4.9738e-12
3	93187	22.81	-4.61853e-12
3	93608	22.91	-4.26326e-12
3	94045	23.01	-3.55271e-12
3	94475	23.11	-3.19744e-12
3	94908	23.21	-3.19744e-12
3	95329	23.31	-2.84217e-12
3	95762	23.41	-2.4869e-12
3	96180	23.51	-2.13163e-12
3	96613	23.61	-2.13163e-12
3	97037	23.71	-1.77636e-12
3	97458	23.81	-1.77636e-12
3	97885	23.91	-1.42109e-12
3	98322	24.01	-1.42109e-12
3	98749	24.11	-1.06581e-12
3	99176	24.21	-1.06581e-12
3	99609	24.31	-1.06581e-12
3	100042	24.41	-1.06581e-12
3	100434	24.51	-7.10543e-13
3	100864	24.61	-7.10543e-13
3	101291	24.71	-7.10543e-13
3	101724	24.81	-7.10543e-13
3	102148	24.91	-7.10543e-13
3	102588	25.01	-3.55271e-13
3	103009	25.11	-3.55271e-13
3	103442	25.21	-3.55271e-13
3	103869	25.31	-3.55271e-13
3	104302	25.41	-3.55271e-13
3	104735	25.51	-3.55271e-13
3	105156	25.61	-3.55271e-13
3	105580	25.71	-3.55271e-13
3	106013	25.81	-3.55271e-13
3	106446	25.91	-3.55271e-13
3	106886	26.01	0
3	107313	26.11	0
3	107746	26.21	0
3	108173	26.31	0
3	108603	26.41	0
3	109033	26.51	0
3	109466	26.61	0
3	109887	26.71	0
3	110320	26.81	0
3	110747	26.91	0
3	111187	27.01	0
3	111614	27.11	0
3	112041	27.21	0
3	112468	27.31	0
3	112898	27.41	0
3	113322	27.51	0
3	113737	27.61	0
3	114164	27.71	0
3	114591	27.81	0
3	115018	27.91	0
3	115458	28.01	0
3	115882	28.11	0
3	116309	28.21	0
3	116739	28.31	0
3	117172	28.41	0
3	117599	28.51	0
3	118032	28.61	0
3	118459	28.71	0
3	118883	28.81	0
3	119316	28.91	0
3	119750	29.01	0
3	120183	29.11	0
3	120575	29.21	0
3	120969	29.31	0
3	121393	29.41	0
3	121814	29.51	0
3	122244	29.61	0
3	122668	29.71	0
3	123101	29.81	0
3	123531	29.91	0
3	123959	30.01	0
3	124377	30.11	0
3	124807	30.21	0
3	125231	30.31	0
3	125661	30.41	0
3	126082	30.51	0
3	126515	30.61	0
3	126942	30.71	0
3	127369	30.81	0
3	127799	30.91	0
3	128239	31.01	0
3	128672	31.11	0
3	129105	31.21	0
3	129499	31.31	0
3	129926	31.41	0
3	130350	31.51	0
3	130777	31.61	0
3	131210	31.71	0
3	131643	31.81	0
3	132076	31.91	0
3	132516	32.01	0
3	132949	32.11	0
3	133376	32.21	0
3	133797	32.31	0
3	134224	32.41	0
3	134657	32.51	0
3	135090	32.61	0
3	135517	32.71	0
3	135950	32.81	0
3	136380	32.91	0
3	136814	33.01	0
3	137238	33.11	0
3	137659	33.21	0
3	138086	33.31	0
3	138513	33.41	0
3	138943	33.51	0
3	139370	33.61	0
3	139791	33.71	0
3	140218	33.81	0
3	140651	33.91	0
3	141091	34.01	0
3	141515	34.11	0
3	141939	34.21	0
3	142366	34.31	0
3	142799	34.41	0
3	143232	34.51	0
3	143665	34.61	0
3	144098	34.71	0
3	144525	34.81	0
3	144946	34.91	0
3	145344	35.01	0
3	145777	35.11	0
3	146201	35.21	0
3	146628	35.31	0
3	147052	35.41	0
3	147470	35.51	0
3	147900	35.61	0
3	148327	35.71	0
3	148754	35.81	0
3	149187	35.91	0
3	149621	36.01	0
3	150042	36.11	0
3	150472	36.21	0
3	150899	36.31	0
3	151329	36.41	0
3	151762	36.51	0
3	152186	36.61	0
3	152610	36.71	0
3	153040	36.81	0
3	153473	36.91	0
3	153907	37.01	0
3	154334	37.11	0
3	154764	37.21	0
3	155191	37.31	0
3	155612	37.41	0
3	156045	37.51	0
3	156466	37.61	0
3	156899	37.71	0
3	157332	37.81	0
3	157756	37.91	0
3	158187	38.01	0
3	158614	38.11	0
3	159044	38.21	0
3	159474	38.31	0
3	159901	38.41	0
3	160331	38.51	0
3	160758	38.61	0
3	161185	38.71	0
3	161609	38.81	0
3	162039	38.91	0
3	162479	39.01	0
3	162906	39.11	0
3	163324	39.21	0
3	163751	39.31	0
3	164178	39.41	0
3	164611	39.51	0
3	165044	39.61	0
3	165465	39.71	0
3	165892	39.81	0
3	166319	39.91	0
3	166759	40.01	0
3	167183	40.11	0
3	167574	40.21	0
3	167998	40.31	0
3	168431	40.41	0
3	168840	40.51	0
3	169252	40.61	0
3	169679	40.71	0
3	170103	40.81	0
3	170530	40.91	0
3	170967	41.01	0
3	171400	41.11	0
3	171833	41.21	0
3	172254	41.31	0
3	172687	41.41	0
3	173120	41.51	0
3	173553	41.61	0
3	173983	41.71	0
3	174407	41.81	0
3	174828	41.91	0
3	175256	42.01	0
3	175689	42.11	0
3	176116	42.21	0
3	176546	42.31	0
3	176979	42.41	0
3	177409	42.51	0
3	177842	42.61	0
3	178275	42.71	0
3	178708	42.81	0
3	179135	42.91	0
3	179569	43.01	0
3	179999	43.11	0
3	180432	43.21	0
3	180865	43.31	0
3	181292	43.41	0
3	181719	43.51	0
3	182149	43.61	0
3	182582	43.71	0
3	183015	43.81	0
3	183448	43.91	0
3	183888	44.01	0
3	184321	44.11	0
3	184748	44.21	0
3	185181	44.31	0
3	185599	44.41	0
3	186032	44.51	0
3	186459	44.61	0
3	186886	44.71	0
3	187319	44.81	0
3	187746	44.91	0
3	188174	45.01	0
3	188598	45.11	0
3	189031	45.21	0
3	189452	45.31	0
3	189870	45.41	0
3	190297	45.51	0
3	190721	45.61	0
3	191154	45.71	0
3	191569	45.81	0
3	192002	45.91	0
3	192436	46.01	0
3	192869	46.11	0
3	193287	46.21	0
3	193714	46.31	0
3	194147	46.41	0
3	194577	46.51	0
3	195010	46.61	0
3	195437	46.71	0
3	195870	46.81	0
3	196303	46.91	0
3	196743	47.01	0
3	197176	47.11	0
3	197567	47.21	0
3	197961	47.31	0
3	198394	47.41	0
3	198821	47.51	0
3	199254	47.61	0
3	199681	47.71	0
3	200108	47.81	0
3	200538	47.91	0
3	200972	48.01	0
3	201399	48.11	0
3	201826	48.21	0
3	202253	48.31	0
3	202680	48.41	0
3	203113	48.51	0
3	203540	48.61	0
3	203967	48.71	0
3	204400	48.81	0
3	204833	48.91	0
3	205273	49.01	0
3	205706	49.11	0
3	206133	49.21	0
3	206566	49.31	0
3	206999	49.41	0
3	207432	49.51	0
3	207862	49.61	0
3	208292	49.71	0
3	208725	49.81	0
3	209140	49.91	0
3	209581	50.01	0
3	1699706	50.11	0
3	3295187	50.21	0
3	4863802	50.31	0
3	6443896	50.41	0
3	8040911	50.51	0
3	9609753	50.61	0
3	11203918	50.71	0
3	12776406	50.81	0
3	14359995	50.91	0
3	15941015	51.01	0
3	17520522	51.11	0
3	19098175	51.21	0
3	20677171	51.31	0
3	22250446	51.41	0
3	23840591	51.51	0
3	25439308	51.61	0
3	26978768	51.71	0
3	28579413	51.81	0
3	30175302	51.91	0
3	31739965	52.01	0
3	33319649	52.11	0
3	34906924	52.21	0
3	36486913	52.31	0
3	38068076	52.41	0
3	39651673	52.51	0
3	41236520	52.61	0
3	42797003	52.71	0
3	44380951	52.81	0
3	45958918	52.91	0
3	47542673	53.01	0
3	49126872	53.11	0
3	50709026	53.21	0
3	52294505	53.31	0
3	53859284	53.41	0
3	55442094	53.51	0
3	57032871	53.61	0
3	58605884	53.71	0
3	60192263	53.81	0
3	61768054	53.91	0
3	63347641	54.01	0
3	64924644	54.11	0
3	66494665	54.21	0
3	68085195	54.31	0
3	69671044	54.41	0
3	71251006	54.51	0
3	72830338	54.61	0
3	74408766	54.71	0
3	75986855	54.81	0
3	77573274	54.91	0
3	79161034	55.01	0
3	80731955	55.11	0
3	82316909	55.21	0
3	83878267	55.31	0
3	85474300	55.41	0
3	87057294	55.51	0
3	88628936	55.61	0
3	90216260	55.71	0
3	91805155	55.81	0
3	93377434	55.91	0
3	94964825	56.01	0
3	96547938	56.11	0
3	98114745	56.21	0
3	99699848	56.31	0
3	101299079	56.41	0
3	102849167	56.51	0
3	104443144	56.61	0
3	106031155	56.71	0
3	107592271	56.81	0
3	109178364	56.91	0
3	110749974	57.01	0
3	112332888	57.11	0
3	113931125	57.21	0
3	115492649	57.31	0
3	117084367	57.41	0
3	118669456	57.51	0
3	120239651	57.61	0
3	121827029	57.71	0
3	123395207	57.81	0
3	124988791	57.91	0
3	126576840	58.01	0
3	128160675	58.11	0
3	129729343	58.21	0
3	131311821	58.31	0
3	132887444	58.41	0
3	134471021	58.51	0
3	136042972	58.61	0
3	137628135	58.71	0
3	139198283	58.81	0
3	140787303	58.91	0
3	142361510	59.01	0
3	143941680	59.11	0
3	145516138	59.21	0
3	147097388	59.31	0
3	148695670	59.41	0
3	150260618	59.51	0
3	151835462	59.61	0
3	153430490	59.71	0
3	155006614	59.81	0
3	156588002	59.91	0
3	158171652	60.01	-0.156863
3	159741249	60.11	-1.5659
3	161336014	60.21	-2.72179
3	162896556	60.31	-3.67003
3	164492151	60.41	-4.44792
3	166085735	60.51	-5.08606
3	167655836	60.61	-5.60955
3	169234818	60.71	-6.039
3	170823076	60.81	-6.3913
3	172394163	60.91	-6.6803
3	173975193	61.01	-6.91739
3	175567708	61.11	-7.11188
3	177148249	61.21	-7.27143
3	178728588	61.31	-7.40232
3	180299572	61.41	-7.5097
3	181883500	61.51	-7.59778
3	183477243	61.61	-7.67004
3	185049463	61.71	-7.72932
3	186635880	61.81	-7.77795
3	188217283	61.91	-7.81784
3	189785674	62.01	-7.85056
3	191370207	62.11	-7.87741
3	192949207	62.21	-7.89943
3	194528595	62.31	-7.9175
3	196109886	62.41	-7.93232
3	197694199	62.51	-7.94448
3	199260048	62.61	-7.95445
3	200858422	62.71	-7.96264
3	202432712	62.81	-7.96935
3	203999744	62.91	-7.97486
3	205589448	63.01	-7.97937
3	207195893	63.11	-7.98308
3	208768097	63.21	-7.98612
3	210359403	63.31	-7.98861
3	211922340	63.41	-7.99066
3	213504917	63.51	-7.99234
3	215092938	63.61	-7.99371
3	216670323	63.71	-7.99484
3	218260679	63.81	-7.99577
3	219850466	63.91	-7.99653
3	221415857	64.01	0
3	222996850	64.11	0
3	224589864	64.21	0
3	226151879	64.31	0
3	227742012	64.41	0
3	229337264	64.51	0
3	230916563	64.61	0
3	232502103	64.71	0
3	234080615	64.81	0
3	235653006	64.91	0
3	237239030	65.01	0
3	238812586	65.11	0
3	240389698	65.21	0
3	241989899	65.31	0
3	243551116	65.41	0
3	245137890	65.51	0
3	246734588	65.61	0
3	248302268	65.71	0
3	249877062	65.81	0
3	251477285	65.91	0
3	253052093	66.01	0
3	254627629	66.11	0
3	256208850	66.21	0
3	257795093	66.31	0
3	259392029	66.41	0
3	260946625	66.51	0
3	262548463	66.61	0
3	264135497	66.71	0
3	265707939	66.81	0
3	267290058	66.91	0
3	268881535	67.01	0
3	270449677	67.11	0
3	272040477	67.21	0
3	273614250	67.31	0
3	275187318	67.41	0
3	276772861	67.51	0
3	278343582	67.61	0
3	279928906	67.71	0
3	281517858	67.81	0
3	283081399	67.91	0
3	284661025	68.01	0
3	286252661	68.11	0
3	287827996	68.21	0
3	289404704	68.31	0
3	290989198	68.41	0
3	292567972	68.51	0
3	294147609	68.61	0
3	295744559	68.71	0
3	297321953	68.81	0
3	298911721	68.91	0
3	300472924	69.01	0
3	302064943	69.11	0
3	303657290	69.21	0
3	305220726	69.31	0
3	306804498	69.41	0
3	308392740	69.51	0
3	309961098	69.61	0
3	311554590	69.71	0
3	313131168	69.81	0
3	314701114	69.91	0
7	232	1.11	242.45
7	663	1.21	242.45
7	1096	1.31	242.45
7	1530	1.41	242.45
7	1958	1.51	242.45
7	2391	1.61	242.45
7	2818	1.71	242.45
7	3252	1.81	242.45
7	3685	1.91	242.45
7	4121	2.01	242.45
7	4554	2.11	242.45
7	4981	2.21	242.45
7	5414	2.31	242.45
7	5835	2.41	242.45
7	6268	2.51	242.45
7	6701	2.61	242.45
7	7134	2.71	242.45
7	7561	2.81	242.45
7	7994	2.91	242.45
7	8416	3.01	242.45
7	8849	3.11	242.45
7	9282	3.21	242.45
7	9709	3.31	242.45
7	10136	3.41	242.45
7	10563	3.51	242.45
7	10957	3.61	242.45
7	11387	3.71	242.45
7	11820	3.81	242.45
7	12247	3.91	242.45
7	12687	4.01	242.45
7	13120	4.11	242.45
7	13547	4.21	242.45
7	13980	4.31	242.45
7	14410	4.41	242.45
7	14843	4.51	242.45
7	15264	4.61	242.45
7	15685	4.71	242.45
7	16118	4.81	242.45
7	16545	4.91	242.45
7	16985	5.01	242.45
7	17418	5.11	242.45
7	17851	5.21	242.45
7	18272	5.31	242.45
7	18705	5.41	242.45
7	19089	5.51	242.45
7	19522	5.61	242.45
7	19943	5.71	242.45
7	20370	5.81	242.45
7	20803	5.91	242.45
7	21243	6.01	242.45
7	21676	6.11	242.45
7	22103	6.21	242.45
7	22527	6.31	242.45
7	22960	6.41	242.45
7	23348	6.51	242.45
7	23781	6.61	242.45
7	24211	6.71	242.45
7	24638	6.81	242.45
7	25071	6.91	242.45
7	25502	7.01	242.45
7	25929	7.11	242.45
7	26359	7.21	242.45
7	26786	7.31	242.45
7	27216	7.41	242.45
7	27637	7.51	242.45
7	28070	7.61	242.45
7	28497	7.71	242.45
7	28924	7.81	242.45
7	29357	7.91	242.45
7	29791	8.01	242.45
7	30224	8.11	242.45
7	30651	8.21	242.45
7	31078	8.31	242.45
7	31508	8.41	242.45
7	31941	8.51	242.45
7	32371	8.61	242.45
7	32804	8.71	242.45
7	33225	8.81	242.45
7	33652	8.91	242.45
7	34086	9.01	242.45
7	34519	9.11	242.45
7	34952	9.21	242.45
7	35382	9.31	242.45
7	35815	9.41	242.45
7	36236	9.51	242.45
7	36669	9.61	242.45
7	37102	9.71	242.45
7	37529	9.81	242.45
7	37962	9.91	242.45
7	38402	10.01	242.45
7	38829	10.11	242.45
7	39259	10.21	242.45
7	39692	10.31	242.45
7	40125	10.41	242.45
7	40552	10.51	242.45
7	40973	10.61	242.45
7	41406	10.71	242.45
7	41836	10.81	242.45
7	42263	10.91	242.45
7	42703	11.01	242.45
7	43118	11.11	242.45
7	43551	11.21	242.45
7	43981	11.31	242.45
7	44402	11.41	242.45
7	44829	11.51	242.45
7	45262	11.61	242.45
7	45683	11.71	242.45
7	46116	11.81	242.45
7	46546	11.91	242.45
7	46980	12.01	242.45
7	47413	12.11	242.45
7	47840	12.21	242.45
7	48273	12.31	242.45
7	48694	12.41	242.45
7	49121	12.51	242.45
7	49554	12.61	242.45
7	49978	12.71	242.45
7	50408	12.81	242.45
7	50841	12.91	242.45
7	51278	13.01	242.45
7	51705	13.11	242.45
7	52132	13.21	242.45
7	52565	13.31	242.45
7	52998	13.41	242.45
7	53425	13.51	242.45
7	53855	13.61	242.45
7	54282	13.71	242.45
7	54709	13.81	242.45
7	55133	13.91	242.45
7	55570	14.01	242.45
7	56003	14.11	242.45
7	56436	14.21	242.45
7	56863	14.31	242.45
7	57290	14.41	242.45
7	57717	14.51	242.45
7	58150	14.61	242.45
7	58583	14.71	242.45
7	59007	14.81	242.45
7	59440	14.91	242.45
7	59874	15.01	242.45
7	60307	15.11	242.45
7	60740	15.21	242.45
7	61173	15.31	242.45
7	61591	15.41	242.45
7	62015	15.51	242.45
7	62442	15.61	242.45
7	62875	15.71	242.45
7	63305	15.81	242.45
7	63723	15.91	242.45
7	64157	16.01	242.45
7	64590	16.11	242.45
7	65011	16.21	242.45
7	65444	16.31	242.45
7	65865	16.41	242.45
7	66298	16.51	242.45
7	66716	16.61	242.45
7	67143	16.71	242.45
7	67570	16.81	242.45
7	68000	16.91	242.45
7	68440	17.01	242.45
7	68873	17.11	242.45
7	69303	17.21	242.45
7	69727	17.31	242.45
7	70154	17.41	242.45
7	70581	17.51	242.45
7	71008	17.61	242.45
7	71429	17.71	242.45
7	71850	17.81	242.45
7	72268	17.91	242.45
7	72702	18.01	242.45
7	73135	18.11	242.45
7	73568	18.21	242.45
7	73995	18.31	242.45
7	74428	18.41	242.45
7	74855	18.51	242.45
7	75288	18.61	242.45
7	75721	18.71	242.45
7	76154	18.81	242.45
7	76572	18.91	242.45
7	76961	19.01	242.45
7	77391	19.11	242.45
7	77821	19.21	242.45
7	78236	19.31	242.45
7	78669	19.41	242.45
7	79096	19.51	242.45
7	79529	19.61	242.45
7	79956	19.71	242.45
7	80383	19.81	242.45
7	80816	19.91	242.45
7	81217	20.01	242.45
7	81650	20.11	242.45
7	82080	20.21	242.45
7	82513	20.31	242.45
7	82946	20.41	242.45
7	83376	20.51	242.45
7	83797	20.61	242.45
7	84227	20.71	242.45
7	84657	20.81	242.45
7	85084	20.91	242.45
7	85524	21.01	242.45
7	85933	21.11	242.45
7	86363	21.21	242.45
7	86796	21.31	242.45
7	87214	21.41	242.45
7	87647	21.51	242.45
7	88074	21.61	242.45
7	88501	21.71	242.45
7	88934	21.81	242.45
7	89364	21.91	242.45
7	89795	22.01	242.45
7	90228	22.11	242.45
7	90655	22.21	242.45
7	91088	22.31	242.45
7	91512	22.41	242.45
7	91936	22.51	242.45
7	92327	22.61	242.45
7	92754	22.71	242.45
7	93187	22.81	242.45
7	93608	22.91	242.45
7	94045	23.01	242.45
7	94475	23.11	242.45
7	94908	23.21	242.45
7	95329	23.31	242.45
7	95762	23.41	242.45
7	96180	23.51	242.45
7	96613	23.61	242.45
7	97037	23.71	242.45
7	97458	23.81	242.45
7	97885	23.91	242.45
7	98322	24.01	242.45
7	98749	24.11	242.45
7	99176	24.21	242.45
7	99609	24.31	242.45
7	100042	24.41	242.45
7	100434	24.51	242.45
7	100864	24.61	242.45
7	101291	24.71	242.45
7	101724	24.81	242.45
7	102148	24.91	242.45
7	102588	25.01	242.45
7	103009	25.11	242.45
7	103442	25.21	242.45
7	103869	25.31	242.45
7	104302	25.41	242.45
7	104735	25.51	242.45
7	105156	25.61	242.45
7	105580	25.71	242.45
7	106013	25.81	242.45
7	106446	25.91	242.45
7	106886	26.01	242.45
7	107313	26.11	242.45
7	107746	26.21	242.45
7	108173	26.31	242.45
7	108603	26.41	242.45
7	109033	26.51	242.45
7	109466	26.61	242.45
7	109887	26.71	242.45
7	110320	26.81	242.45
7	110747	26.91	242.45
7	111187	27.01	242.45
7	111614	27.11	242.45
7	112041	27.21	242.45
7	112468	27.31	242.45
7	112898	27.41	242.45
7	113322	27.51	242.45
7	113737	27.61	242.45
7	114164	27.71	242.45
7	114591	27.81	242.45
7	115018	27.91	242.45
7	115458	28.01	242.45
7	115882	28.11	242.45
7	116309	28.21	242.45
7	116739	28.31	242.45
7	117172	28.41	242.45
7	117599	28.51	242.45
7	118032	28.61	242.45
7	118459	28.71	242.45
7	118883	28.81	242.45
7	119316	28.91	242.45
7	119750	29.01	242.45
7	120183	29.11	242.45
7	120575	29.21	242.45
7	120969	29.31	242.45
7	121393	29.41	242.45
7	121814	29.51	242.45
7	122244	29.61	242.45
7	122668	29.71	242.45
7	123101	29.81	242.45
7	123531	29.91	242.45
7	123959	30.01	242.45
7	124377	30.11	242.45
7	124807	30.21	242.45
7	125231	30.31	242.45
7	125661	30.41	242.45
7	126082	30.51	242.45
7	126515	30.61	242.45
7	126942	30.71	242.45
7	127369	30.81	242.45
7	127799	30.91	242.45
7	128239	31.01	242.45
7	128672	31.11	242.45
7	129105	31.21	242.45
7	129499	31.31	242.45
7	129926	31.41	242.45
7	130350	31.51	242.45
7	130777	31.61	242.45
7	131210	31.71	242.45
7	131643	31.81	242.45
7	132076	31.91	242.45
7	132516	32.01	242.45
7	132949	32.11	242.45
7	133376	32.21	242.45
7	133797	32.31	242.45
7	134224	32.41	242.45
7	134657	32.51	242.45
7	135090	32.61	242.45
7	135517	32.71	242.45
7	135950	32.81	242.45
7	136380	32.91	242.45
7	136814	33.01	242.45
7	137238	33.11	242.45
7	137659	33.21	242.45
7	138086	33.31	242.45
7	138513	33.41	242.45
7	138943	33.51	242.45
7	139370	33.61	242.45
7	139791	33.71	242.45
7	140218	33.81	242.45
7	140651	33.91	242.45
7	141091	34.01	242.45
7	141515	34.11	242.45
7	141939	34.21	242.45
7	142366	34.31	242.45
7	142799	34.41	242.45
7	143232	34.51	242.45
7	143665	34.61	242.45
7	144098	34.71	242.45
7	144525	34.81	242.45
7	144946	34.91	242.45
7	145344	35.01	242.45
7	145777	35.11	242.45
7	146201	35.21	242.45
7	146628	35.31	242.45
7	147052	35.41	242.45
7	147470	35.51	242.45
7	147900	35.61	242.45
7	148327	35.71	242.45
7	148754	35.81	242.45
7	149187	35.91	242.45
7	149621	36.01	242.45
7	150042	36.11	242.45
7	150472	36.21	242.45
7	150899	36.31	242.45
7	151329	36.41	242.45
7	151762	36.51	242.45
7	152186	36.61	242.45
7	152610	36.71	242.45
7	153040	36.81	242.45
7	153473	36.91	242.45
7	153907	37.01	242.45
7	154334	37.11	242.45
7	154764	37.21	242.45
7	155191	37.31	242.45
7	155612	37.41	242.45
7	156045	37.51	242.45
7	156466	37.61	242.45
7	156899	37.71	242.45
7	157332	37.81	242.45
7	157756	37.91	242.45
7	158187	38.01	242.45
7	158614	38.11	242.45
7	159044	38.21	242.45
7	159474	38.31	242.45
7	159901	38.41	242.45
7	160331	38.51	242.45
7	160758	38.61	242.45
7	161185	38.71	242.45
7	161609	38.81	242.45
7	162039	38.91	242.45
7	162479	39.01	242.45
7	162906	39.11	242.45
7	163324	39.21	242.45
7	163751	39.31	242.45
7	164178	39.41	242.45
7	164611	39.51	242.45
7	165044	39.61	242.45
7	165465	39.71	242.45
7	165892	39.81	242.45
7	166319	39.91	242.45
7	166759	40.01	242.45
7	167183	40.11	242.45
7	167574	40.21	242.45
7	167998	40.31	242.45
7	168431	40.41	242.45
7	168840	40.51	242.45
7	169252	40.61	242.45
7	169679	40.71	242.45
7	170103	40.81	242.45
7	170530	40.91	242.45
7	170967	41.01	242.45
7	171400	41.11	242.45
7	171833	41.21	242.45
7	172254	41.31	242.45
7	172687	41.41	242.45
7	173120	41.51	242.45
7	173553	41.61	242.45
7	173983	41.71	242.45
7	174407	41.81	242.45
7	174828	41.91	242.45
7	175256	42.01	242.45
7	175689	42.11	242.45
7	176116	42.21	242.45
7	176546	42.31	242.45
7	176979	42.41	242.45
7	177409	42.51	242.45
7	177842	42.61	242.45
7	178275	42.71	242.45
7	178708	42.81	242.45
7	179135	42.91	242.45
7	179569	43.01	242.45
7	179999	43.11	242.45
7	180432	43.21	242.45
7	180865	43.31	242.45
7	181292	43.41	242.45
7	181719	43.51	242.45
7	182149	43.61	242.45
7	182582	43.71	242.45
7	183015	43.81	242.45
7	183448	43.91	242.45
7	183888	44.01	242.45
7	184321	44.11	242.45
7	184748	44.21	242.45
7	185181	44.31	242.45
7	185599	44.41	242.45
7	186032	44.51	242.45
7	186459	44.61	242.45
7	186886	44.71	242.45
7	187319	44.81	242.45
7	187746	44.91	242.45
7	188174	45.01	242.45
7	188598	45.11	242.45
7	189031	45.21	242.45
7	189452	45.31	242.45
7	189870	45.41	242.45
7	190297	45.51	242.45
7	190721	45.61	242.45
7	191154	45.71	242.45
7	191569	45.81	242.45
7	192002	45.91	242.45
7	192436	46.01	242.45
7	192869	46.11	242.45
7	193287	46.21	242.45
7	193714	46.31	242.45
7	194147	46.41	242.45
7	194577	46.51	242.45
7	195010	46.61	242.45
7	195437	46.71	242.45
7	195870	46.81	242.45
7	196303	46.91	242.45
7	196743	47.01	242.45
7	197176	47.11	242.45
7	197567	47.21	242.45
7	197961	47.31	242.45
7	198394	47.41	242.45
7	198821	47.51	242.45
7	199254	47.61	242.45
7	199681	47.71	242.45
7	200108	47.81	242.45
7	200538	47.91	242.45
7	200972	48.01	242.45
7	201399	48.11	242.45
7	201826	48.21	242.45
7	202253	48.31	242.45
7	202680	48.41	242.45
7	203113	48.51	242.45
7	203540	48.61	242.45
7	203967	48.71	242.45
7	204400	48.81	242.45
7	204833	48.91	242.45
7	205273	49.01	242.45
7	205706	49.11	242.45
7	206133	49.21	242.45
7	206566	49.31	242.45
7	206999	49.41	242.45
7	207432	49.51	242.45
7	207862	49.61	242.45
7	208292	49.71	242.45
7	208725	49.81	242.45
7	209140	49.91	242.45
7	209581	50.01	242.45
7	1699706	50.11	242.45
7	3295187	50.21	242.45
7	4863802	50.31	242.45
7	6443896	50.41	242.45
7	8040911	50.51	242.45
7	9609753	50.61	242.45
7	11203918	50.71	242.45
7	12776406	50.81	242.45
7	14359995	50.91	242.45
7	15941015	51.01	242.45
7	17520522	51.11	242.45
7	19098175	51.21	242.45
7	20677171	51.31	242.45
7	22250446	51.41	242.45
7	23840591	51.51	242.45
7	25439308	51.61	242.45
7	26978768	51.71	242.45
7	28579413	51.81	242.45
7	30175302	51.91	242.45
7	31739965	52.01	242.45
7	33319649	52.11	242.45
7	34906924	52.21	242.45
7	36486913	52.31	242.45
7	38068076	52.41	242.45
7	39651673	52.51	242.45
7	41236520	52.61	242.45
7	42797003	52.71	242.45
7	44380951	52.81	242.45
7	45958918	52.91	242.45
7	47542673	53.01	242.45
7	49126872	53.11	242.45
7	50709026	53.21	242.45
7	52294505	53.31	242.45
7	53859284	53.41	242.45
7	55442094	53.51	242.45
7	57032871	53.61	242.45
7	58605884	53.71	242.45
7	60192263	53.81	242.45
7	61768054	53.91	242.45
7	63347641	54.01	242.45
7	64924644	54.11	242.45
7	66494665	54.21	242.45
7	68085195	54.31	242.45
7	69671044	54.41	242.45
7	71251006	54.51	242.45
7	72830338	54.61	242.45
7	74408766	54.71	242.45
7	75986855	54.81	242.45
7	77573274	54.91	242.45
7	79161034	55.01	242.45
7	80731955	55.11	242.45
7	82316909	55.21	242.45
7	83878267	55.31	242.45
7	85474300	55.41	242.45
7	87057294	55.51	242.45
7	88628936	55.61	242.45
7	90216260	55.71	242.45
7	91805155	55.81	242.45
7	93377434	55.91	242.45
7	94964825	56.01	242.45
7	96547938	56.11	242.45
7	98114745	56.21	242.45
7	99699848	56.31	242.45
7	101299079	56.41	242.45
7	102849167	56.51	242.45
7	104443144	56.61	242.45
7	106031155	56.71	242.45
7	107592271	56.81	242.45
7	109178364	56.91	242.45
7	110749974	57.01	242.45
7	112332888	57.11	242.45
7	113931125	57.21	242.45
7	115492649	57.31	242.45
7	117084367	57.41	242.45
7	118669456	57.51	242.45
7	120239651	57.61	242.45
7	121827029	57.71	242.45
7	123395207	57.81	242.45
7	124988791	57.91	242.45
7	126576840	58.01	242.45
7	128160675	58.11	242.45
7	129729343	58.21	242.45
7	131311821	58.31	242.45
7	132887444	58.41	242.45
7	134471021	58.51	242.45
7	136042972	58.61	242.45
7	137628135	58.71	242.45
7	139198283	58.81	242.45
7	140787303	58.91	242.45
7	142361510	59.01	242.45
7	143941680	59.11	242.45
7	145516138	59.21	242.45
7	147097388	59.31	242.45
7	148695670	59.41	242.45
7	150260618	59.51	242.45
7	151835462	59.61	242.45
7	153430490	59.71	242.45
7	155006614	59.81	242.45
7	156588002	59.91	242.45
7	158171652	60.01	242.45
7	159741249	60.11	242.45
7	161336014	60.21	242.45
7	162896556	60.31	242.45
7	164492151	60.41	242.45
7	166085735	60.51	242.45
7	167655836	60.61	242.45
7	169234818	60.71	242.45
7	170823076	60.81	242.45
7	172394163	60.91	242.45
7	173975193	61.01	242.45
7	175567708	61.11	242.45
7	177148249	61.21	242.45
7	178728588	61.31	242.45
7	180299572	61.41	242.45
7	181883500	61.51	242.45
7	183477243	61.61	242.45
7	185049463	61.71	242.45
7	186635880	61.81	242.45
7	188217283	61.91	242.45
7	189785674	62.01	242.45
7	191370207	62.11	242.45
7	192949207	62.21	242.45
7	194528595	62.31	242.45
7	196109886	62.41	242.45
7	197694199	62.51	242.45
7	199260048	62.61	242.45
7	200858422	62.71	242.45
7	202432712	62.81	242.45
7	203999744	62.91	242.45
7	205589448	63.01	242.45
7	207195893	63.11	242.45
7	208768097	63.21	242.45
7	210359403	63.31	242.45
7	211922340	63.41	242.45
7	213504917	63.51	242.45
7	215092938	63.61	242.45
7	216670323	63.71	242.45
7	218260679	63.81	242.45
7	219850466	63.91	242.45
7	221415857	64.01	242.45
7	222996850	64.11	242.45
7	224589864	64.21	242.45
7	226151879	64.31	242.45
7	227742012	64.41	242.45
7	229337264	64.51	242.45
7	230916563	64.61	242.45
7	232502103	64.71	242.45
7	234080615	64.81	242.45
7	235653006	64.91	242.45
7	237239030	65.01	242.45
7	238812586	65.11	242.45
7	240389698	65.21	242.45
7	241989899	65.31	242.45
7	243551116	65.41	242.45
7	245137890	65.51	242.45
7	246734588	65.61	242.45
7	248302268	65.71	242.45
7	249877062	65.81	242.45
7	251477285	65.91	242.45
7	253052093	66.01	242.45
7	254627629	66.11	242.45
7	256208850	66.21	242.45
7	257795093	66.31	242.45
7	259392029	66.41	242.45
7	260946625	66.51	242.45
7	262548463	66.61	242.45
7	264135497	66.71	242.45
7	265707939	66.81	242.45
7	267290058	66.91	242.45
7	268881535	67.01	242.45
7	270449677	67.11	242.45
7	272040477	67.21	242.45
7	273614250	67.31	242.45
7	275187318	67.41	242.45
7	276772861	67.51	242.45
7	278343582	67.61	242.45
7	279928906	67.71	242.45
7	281517858	67.81	242.45
7	283081399	67.91	242.45
7	284661025	68.01	242.45
7	286252661	68.11	242.45
7	287827996	68.21	242.45
7	289404704	68.31	242.45
7	290989198	68.41	242.45
7	292567972	68.51	242.45
7	294147609	68.61	242.45
7	295744559	68.71	242.45
7	297321953	68.81	242.45
7	298911721	68.91	242.45
7	300472924	69.01	242.45
7	302064943	69.11	242.45
7	303657290	69.21	242.45
7	305220726	69.31	242.45
7	306804498	69.41	242.45
7	308392740	69.51	242.45
7	309961098	69.61	242.45
7	311554590	69.71	242.45
7	313131168	69.81	242.45
7	314701114	69.91	242.45
6	232	1.11	52.9402
6	663	1.21	55.7182
6	1096	1.31	58.4962
6	1530	1.41	61.2742
6	1958	1.51	64.0521
6	2391	1.61	66.8301
6	2818	1.71	69.608
6	3252	1.81	72.386
6	3685	1.91	75.1639
6	4121	2.01	77.9418
6	4554	2.11	80.7197
6	4981	2.21	83.4975
6	5414	2.31	86.2754
6	5835	2.41	89.0532
6	6268	2.51	91.8311
6	6701	2.61	94.6089
6	7134	2.71	97.3867
6	7561	2.81	100.165
6	7994	2.91	102.942
6	8416	3.01	105.72
6	8849	3.11	108.498
6	9282	3.21	111.276
6	9709	3.31	114.054
6	10136	3.41	116.831
6	10563	3.51	119.609
6	10957	3.61	122.387
6	11387	3.71	125.165
6	11820	3.81	127.942
6	12247	3.91	130.72
6	12687	4.01	133.498
6	13120	4.11	136.276
6	13547	4.21	139.053
6	13980	4.31	141.831
6	14410	4.41	144.609
6	14843	4.51	147.387
6	15264	4.61	150.165
6	15685	4.71	152.942
6	16118	4.81	155.72
6	16545	4.91	158.498
6	16985	5.01	161.276
6	17418	5.11	164.053
6	17851	5.21	166.831
6	18272	5.31	169.609
6	18705	5.41	172.387
6	19089	5.51	175.165
6	19522	5.61	177.942
6	19943	5.71	180.72
6	20370	5.81	183.498
6	20803	5.91	186.276
6	21243	6.01	189.053
6	21676	6.11	191.831
6	22103	6.21	194.609
6	22527	6.31	197.387
6	22960	6.41	200.165
6	23348	6.51	202.942
6	23781	6.61	205.72
6	24211	6.71	208.498
6	24638	6.81	211.276
6	25071	6.91	214.053
6	25502	7.01	216.831
6	25929	7.11	219.609
6	26359	7.21	222.387
6	26786	7.31	225.165
6	27216	7.41	227.942
6	27637	7.51	230.72
6	28070	7.61	233.498
6	28497	7.71	236.276
6	28924	7.81	239.053
6	29357	7.91	241.831
6	29791	8.01	244.609
6	30224	8.11	247.387
6	30651	8.21	250.165
6	31078	8.31	252.942
6	31508	8.41	255.72
6	31941	8.51	258.498
6	32371	8.61	261.276
6	32804	8.71	264.053
6	33225	8.81	266.831
6	33652	8.91	269.609
6	34086	9.01	272.387
6	34519	9.11	275.165
6	34952	9.21	277.942
6	35382	9.31	280.72
6	35815	9.41	283.498
6	36236	9.51	286.276
6	36669	9.61	289.053
6	37102	9.71	291.831
6	37529	9.81	294.609
6	37962	9.91	297.387
6	38402	10.01	300.165
6	38829	10.11	302.942
6	39259	10.21	305.72
6	39692	10.31	308.498
6	40125	10.41	311.276
6	40552	10.51	314.054
6	40973	10.61	316.831
6	41406	10.71	319.609
6	41836	10.81	322.387
6	42263	10.91	325.165
6	42703	11.01	327.942
6	43118	11.11	330.72
6	43551	11.21	333.498
6	43981	11.31	336.276
6	44402	11.41	339.054
6	44829	11.51	341.831
6	45262	11.61	344.609
6	45683	11.71	347.387
6	46116	11.81	350.165
6	46546	11.91	352.942
6	46980	12.01	355.72
6	47413	12.11	358.498
6	47840	12.21	361.276
6	48273	12.31	364.054
6	48694	12.41	366.831
6	49121	12.51	369.609
6	49554	12.61	372.387
6	49978	12.71	375.165
6	50408	12.81	377.942
6	50841	12.91	380.72
6	51278	13.01	383.498
6	51705	13.11	386.276
6	52132	13.21	389.054
6	52565	13.31	391.831
6	52998	13.41	394.609
6	53425	13.51	397.387
6	53855	13.61	400.165
6	54282	13.71	402.942
6	54709	13.81	405.72
6	55133	13.91	408.498
6	55570	14.01	411.276
6	56003	14.11	414.054
6	56436	14.21	416.831
6	56863	14.31	419.609
6	57290	14.41	422.387
6	57717	14.51	425.165
6	58150	14.61	427.942
6	58583	14.71	430.72
6	59007	14.81	433.498
6	59440	14.91	436.276
6	59874	15.01	439.054
6	60307	15.11	441.831
6	60740	15.21	444.609
6	61173	15.31	447.387
6	61591	15.41	450.165
6	62015	15.51	452.943
6	62442	15.61	455.72
6	62875	15.71	458.498
6	63305	15.81	461.276
6	63723	15.91	464.054
6	64157	16.01	466.831
6	64590	16.11	469.609
6	65011	16.21	472.387
6	65444	16.31	475.165
6	65865	16.41	477.943
6	66298	16.51	480.72
6	66716	16.61	483.498
6	67143	16.71	486.276
6	67570	16.81	489.054
6	68000	16.91	491.831
6	68440	17.01	494.609
6	68873	17.11	497.387
6	69303	17.21	500.165
6	69727	17.31	502.943
6	70154	17.41	505.72
6	70581	17.51	508.498
6	71008	17.61	511.276
6	71429	17.71	514.054
6	71850	17.81	516.831
6	72268	17.91	519.609
6	72702	18.01	522.387
6	73135	18.11	525.165
6	73568	18.21	527.943
6	73995	18.31	530.72
6	74428	18.41	533.498
6	74855	18.51	536.276
6	75288	18.61	539.054
6	75721	18.71	541.831
6	76154	18.81	544.609
6	76572	18.91	547.387
6	76961	19.01	550.165
6	77391	19.11	552.943
6	77821	19.21	555.72
6	78236	19.31	558.498
6	78669	19.41	561.276
6	79096	19.51	564.054
6	79529	19.61	566.831
6	79956	19.71	569.609
6	80383	19.81	572.387
6	80816	19.91	575.165
6	81217	20.01	577.943
6	81650	20.11	580.72
6	82080	20.21	583.498
6	82513	20.31	586.276
6	82946	20.41	589.054
6	83376	20.51	591.832
6	83797	20.61	594.609
6	84227	20.71	597.387
6	84657	20.81	600.165
6	85084	20.91	602.943
6	85524	21.01	605.72
6	85933	21.11	608.498
6	86363	21.21	611.276
6	86796	21.31	614.054
6	87214	21.41	616.832
6	87647	21.51	619.609
6	88074	21.61	622.387
6	88501	21.71	625.165
6	88934	21.81	627.943
6	89364	21.91	630.72
6	89795	22.01	633.498
6	90228	22.11	636.276
6	90655	22.21	639.054
6	91088	22.31	641.832
6	91512	22.41	644.609
6	91936	22.51	647.387
6	92327	22.61	650.165
6	92754	22.71	652.943
6	93187	22.81	655.72
6	93608	22.91	658.498
6	94045	23.01	661.276
6	94475	23.11	664.054
6	94908	23.21	666.832
6	95329	23.31	669.609
6	95762	23.41	672.387
6	96180	23.51	675.165
6	96613	23.61	677.943
6	97037	23.71	680.72
6	97458	23.81	683.498
6	97885	23.91	686.276
6	98322	24.01	689.054
6	98749	24.11	691.832
6	99176	24.21	694.609
6	99609	24.31	697.387
6	100042	24.41	700.165
6	100434	24.51	702.943
6	100864	24.61	705.72
6	101291	24.71	708.498
6	101724	24.81	711.276
6	102148	24.91	714.054
6	102588	25.01	716.832
6	103009	25.11	719.609
6	103442	25.21	722.387
6	103869	25.31	725.165
6	104302	25.41	727.943
6	104735	25.51	730.721
6	105156	25.61	733.498
6	105580	25.71	736.276
6	106013	25.81	739.054
6	106446	25.91	741.832
6	106886	26.01	744.609
6	107313	26.11	747.387
6	107746	26.21	750.165
6	108173	26.31	752.943
6	108603	26.41	755.721
6	109033	26.51	758.498
6	109466	26.61	761.276
6	109887	26.71	764.054
6	110320	26.81	766.832
6	110747	26.91	769.609
6	111187	27.01	772.387
6	111614	27.11	775.165
6	112041	27.21	777.943
6	112468	27.31	780.721
6	112898	27.41	783.498
6	113322	27.51	786.276
6	113737	27.61	789.054
6	114164	27.71	791.832
6	114591	27.81	794.609
6	115018	27.91	797.387
6	115458	28.01	800.165
6	115882	28.11	802.943
6	116309	28.21	805.721
6	116739	28.31	808.498
6	117172	28.41	811.276
6	117599	28.51	814.054
6	118032	28.61	816.832
6	118459	28.71	819.609
6	118883	28.81	822.387
6	119316	28.91	825.165
6	119750	29.01	827.943
6	120183	29.11	830.721
6	120575	29.21	833.498
6	120969	29.31	836.276
6	121393	29.41	839.054
6	121814	29.51	841.832
6	122244	29.61	844.609
6	122668	29.71	847.387
6	123101	29.81	850.165
6	123531	29.91	852.943
6	123959	30.01	855.721
6	124377	30.11	858.498
6	124807	30.21	861.276
6	125231	30.31	864.054
6	125661	30.41	866.832
6	126082	30.51	869.61
6	126515	30.61	872.387
6	126942	30.71	875.165
6	127369	30.81	877.943
6	127799	30.91	880.721
6	128239	31.01	883.498
6	128672	31.11	886.276
6	129105	31.21	889.054
6	129499	31.31	891.832
6	129926	31.41	894.61
6	130350	31.51	897.387
6	130777	31.61	900.165
6	131210	31.71	902.943
6	131643	31.81	905.721
6	132076	31.91	908.498
6	132516	32.01	911.276
6	132949	32.11	914.054
6	133376	32.21	916.832
6	133797	32.31	919.61
6	134224	32.41	922.387
6	134657	32.51	925.165
6	135090	32.61	927.943
6	135517	32.71	930.721
6	135950	32.81	933.498
6	136380	32.91	936.276
6	136814	33.01	939.054
6	137238	33.11	941.832
6	137659	33.21	944.61
6	138086	33.31	947.387
6	138513	33.41	950.165
6	138943	33.51	952.943
6	139370	33.61	955.721
6	139791	33.71	958.498
6	140218	33.81	961.276
6	140651	33.91	964.054
6	141091	34.01	966.832
6	141515	34.11	969.61
6	141939	34.21	972.387
6	142366	34.31	975.165
6	142799	34.41	977.943
6	143232	34.51	980.721
6	143665	34.61	983.498
6	144098	34.71	986.276
6	144525	34.81	989.054
6	144946	34.91	991.832
6	145344	35.01	994.61
6	145777	35.11	997.387
6	146201	35.21	1000.17
6	146628	35.31	1002.94
6	147052	35.41	1005.72
6	147470	35.51	1008.5
6	147900	35.61	1011.28
6	148327	35.71	1014.05
6	148754	35.81	1016.83
6	149187	35.91	1019.61
6	149621	36.01	1022.39
6	150042	36.11	1025.17
6	150472	36.21	1027.94
6	150899	36.31	1030.72
6	151329	36.41	1033.5
6	151762	36.51	1036.28
6	152186	36.61	1039.05
6	152610	36.71	1041.83
6	153040	36.81	1044.61
6	153473	36.91	1047.39
6	153907	37.01	1050.17
6	154334	37.11	1052.94
6	154764	37.21	1055.72
6	155191	37.31	1058.5
6	155612	37.41	1061.28
6	156045	37.51	1064.05
6	156466	37.61	1066.83
6	156899	37.71	1069.61
6	157332	37.81	1072.39
6	157756	37.91	1075.17
6	158187	38.01	1077.94
6	158614	38.11	1080.72
6	159044	38.21	1083.5
6	159474	38.31	1086.28
6	159901	38.41	1089.05
6	160331	38.51	1091.83
6	160758	38.61	1094.61
6	161185	38.71	1097.39
6	161609	38.81	1100.17
6	162039	38.91	1102.94
6	162479	39.01	1105.72
6	162906	39.11	1108.5
6	163324	39.21	1111.28
6	163751	39.31	1114.05
6	164178	39.41	1116.83
6	164611	39.51	1119.61
6	165044	39.61	1122.39
6	165465	39.71	1125.17
6	165892	39.81	1127.94
6	166319	39.91	1130.72
6	166759	40.01	1133.5
6	167183	40.11	1136.28
6	167574	40.21	1139.05
6	167998	40.31	1141.83
6	168431	40.41	1144.61
6	168840	40.51	1147.39
6	169252	40.61	1150.17
6	169679	40.71	1152.94
6	170103	40.81	1155.72
6	170530	40.91	1158.5
6	170967	41.01	1161.28
6	171400	41.11	1164.05
6	171833	41.21	1166.83
6	172254	41.31	1169.61
6	172687	41.41	1172.39
6	173120	41.51	1175.17
6	173553	41.61	1177.94
6	173983	41.71	1180.72
6	174407	41.81	1183.5
6	174828	41.91	1186.28
6	175256	42.01	1189.05
6	175689	42.11	1191.83
6	176116	42.21	1194.61
6	176546	42.31	1197.39
6	176979	42.41	1200.17
6	177409	42.51	1202.94
6	177842	42.61	1205.72
6	178275	42.71	1208.5
6	178708	42.81	1211.28
6	179135	42.91	1214.05
6	179569	43.01	1216.83
6	179999	43.11	1219.61
6	180432	43.21	1222.39
6	180865	43.31	1225.17
6	181292	43.41	1227.94
6	181719	43.51	1230.72
6	182149	43.61	1233.5
6	182582	43.71	1236.28
6	183015	43.81	1239.05
6	183448	43.91	1241.83
6	183888	44.01	1244.61
6	184321	44.11	1247.39
6	184748	44.21	1250.17
6	185181	44.31	1252.94
6	185599	44.41	1255.72
6	186032	44.51	1258.5
6	186459	44.61	1261.28
6	186886	44.71	1264.05
6	187319	44.81	1266.83
6	187746	44.91	1269.61
6	188174	45.01	1272.39
6	188598	45.11	1275.17
6	189031	45.21	1277.94
6	189452	45.31	1280.72
6	189870	45.41	1283.5
6	190297	45.51	1286.28
6	190721	45.61	1289.05
6	191154	45.71	1291.83
6	191569	45.81	1294.61
6	192002	45.91	1297.39
6	192436	46.01	1300.17
6	192869	46.11	1302.94
6	193287	46.21	1305.72
6	193714	46.31	1308.5
6	194147	46.41	1311.28
6	194577	46.51	1314.05
6	195010	46.61	1316.83
6	195437	46.71	1319.61
6	195870	46.81	1322.39
6	196303	46.91	1325.17
6	196743	47.01	1327.94
6	197176	47.11	1330.72
6	197567	47.21	1333.5
6	197961	47.31	1336.28
6	198394	47.41	1339.05
6	198821	47.51	1341.83
6	199254	47.61	1344.61
6	199681	47.71	1347.39
6	200108	47.81	1350.17
6	200538	47.91	1352.94
6	200972	48.01	1355.72
6	201399	48.11	1358.5
6	201826	48.21	1361.28
6	202253	48.31	1364.05
6	202680	48.41	1366.83
6	203113	48.51	1369.61
6	203540	48.61	1372.39
6	203967	48.71	1375.17
6	204400	48.81	1377.94
6	204833	48.91	1380.72
6	205273	49.01	1383.5
6	205706	49.11	1386.28
6	206133	49.21	1389.05
6	206566	49.31	1391.83
6	206999	49.41	1394.61
6	207432	49.51	1397.39
6	207862	49.61	1400.17
6	208292	49.71	1402.94
6	208725	49.81	1405.72
6	209140	49.91	1408.5
6	209581	50.01	1411.28
6	1699706	50.11	1414.05
6	3295187	50.21	1416.83
6	4863802	50.31	1419.61
6	6443896	50.41	1422.39
6	8040911	50.51	1425.17
6	9609753	50.61	1427.94
6	11203918	50.71	1430.72
6	12776406	50.81	1433.5
6	14359995	50.91	1436.28
6	15941015	51.01	1439.05
6	17520522	51.11	1441.83
6	19098175	51.21	1444.61
6	20677171	51.31	1447.39
6	22250446	51.41	1450.17
6	23840591	51.51	1452.94
6	25439308	51.61	1455.72
6	26978768	51.71	1458.5
6	28579413	51.81	1461.28
6	30175302	51.91	1464.05
6	31739965	52.01	1466.83
6	33319649	52.11	1469.61
6	34906924	52.21	1472.39
6	36486913	52.31	1475.17
6	38068076	52.41	1477.94
6	39651673	52.51	1480.72
6	41236520	52.61	1483.5
6	42797003	52.71	1486.28
6	44380951	52.81	1489.05
6	45958918	52.91	1491.83
6	47542673	53.01	1494.61
6	49126872	53.11	1497.39
6	50709026	53.21	1500.17
6	52294505	53.31	1502.94
6	53859284	53.41	1505.72
6	55442094	53.51	1508.5
6	57032871	53.61	1511.28
6	58605884	53.71	1514.05
6	60192263	53.81	1516.83
6	61768054	53.91	1519.61
6	63347641	54.01	1522.39
6	64924644	54.11	1525.17
6	66494665	54.21	1527.94
6	68085195	54.31	1530.72
6	69671044	54.41	1533.5
6	71251006	54.51	1536.28
6	72830338	54.61	1539.05
6	74408766	54.71	1541.83
6	75986855	54.81	1544.61
6	77573274	54.91	1547.39
6	79161034	55.01	1550.17
6	80731955	55.11	1552.94
6	82316909	55.21	1555.72
6	83878267	55.31	1558.5
6	85474300	55.41	1561.28
6	87057294	55.51	1564.05
6	88628936	55.61	1566.83
6	90216260	55.71	1569.61
6	91805155	55.81	1572.39
6	93377434	55.91	1575.17
6	94964825	56.01	1577.94
6	96547938	56.11	1580.72
6	98114745	56.21	1583.5
6	99699848	56.31	1586.28
6	101299079	56.41	1589.05
6	102849167	56.51	1591.83
6	104443144	56.61	1594.61
6	106031155	56.71	1597.39
6	107592271	56.81	1600.17
6	109178364	56.91	1602.94
6	110749974	57.01	1605.72
6	112332888	57.11	1608.5
6	113931125	57.21	1611.28
6	115492649	57.31	1614.05
6	117084367	57.41	1616.83
6	118669456	57.51	1619.61
6	120239651	57.61	1622.39
6	121827029	57.71	1625.17
6	123395207	57.81	1627.94
6	124988791	57.91	1630.72
6	126576840	58.01	1633.5
6	128160675	58.11	1636.28
6	129729343	58.21	1639.05
6	131311821	58.31	1641.83
6	132887444	58.41	1644.61
6	134471021	58.51	1647.39
6	136042972	58.61	1650.17
6	137628135	58.71	1652.94
6	139198283	58.81	1655.72
6	140787303	58.91	1658.5
6	142361510	59.01	1661.28
6	143941680	59.11	1664.05
6	145516138	59.21	1666.83
6	147097388	59.31	1669.61
6	148695670	59.41	1672.39
6	150260618	59.51	1675.17
6	151835462	59.61	1677.94
6	153430490	59.71	1680.72
6	155006614	59.81	1683.5
6	156588002	59.91	1686.28
6	158171652	60.01	1689.05
6	159741249	60.11	1691.83
6	161336014	60.21	1694.59
6	162896556	60.31	1697.32
6	164492151	60.41	1700.01
6	166085735	60.51	1702.66
6	167655836	60.61	1705.26
6	169234818	60.71	1707.8
6	170823076	60.81	1710.28
6	172394163	60.91	1712.7
6	173975193	61.01	1715.05
6	175567708	61.11	1717.33
6	177148249	61.21	1719.54
6	178728588	61.31	1721.67
6	180299572	61.41	1723.73
6	181883500	61.51	1725.72
6	183477243	61.61	1727.63
6	185049463	61.71	1729.47
6	186635880	61.81	1731.23
6	188217283	61.91	1732.91
6	189785674	62.01	1734.51
6	191370207	62.11	1736.03
6	192949207	62.21	1737.47
6	194528595	62.31	1738.84
6	196109886	62.41	1740.13
6	197694199	62.51	1741.33
6	199260048	62.61	1742.46
6	200858422	62.71	1743.51
6	202432712	62.81	1744.48
6	203999744	62.91	1745.36
6	205589448	63.01	1746.17
6	207195893	63.11	1746.9
6	208768097	63.21	1747.55
6	210359403	63.31	1748.12
6	211922340	63.41	1748.61
6	213504917	63.51	1749.02
6	215092938	63.61	1749.35
6	216670323	63.71	1749.6
6	218260679	63.81	1749.77
6	219850466	63.91	1749.86
6	221415857	64.01	1749.87
6	222996850	64.11	1749.87
6	224589864	64.21	1749.87
6	226151879	64.31	1749.87
6	227742012	64.41	1749.87
6	229337264	64.51	1749.87
6	230916563	64.61	1749.87
6	232502103	64.71	1749.87
6	234080615	64.81	1749.87
6	235653006	64.91	1749.87
6	237239030	65.01	1749.87
6	238812586	65.11	1749.87
6	240389698	65.21	1749.87
6	241989899	65.31	1749.87
6	243551116	65.41	1749.87
6	245137890	65.51	1749.87
6	246734588	65.61	1749.87
6	248302268	65.71	1749.87
6	249877062	65.81	1749.87
6	251477285	65.91	1749.87
6	253052093	66.01	1749.87
6	254627629	66.11	1749.87
6	256208850	66.21	1749.87
6	257795093	66.31	1749.87
6	259392029	66.41	1749.87
6	260946625	66.51	1749.87
6	262548463	66.61	1749.87
6	264135497	66.71	1749.87
6	265707939	66.81	1749.87
6	267290058	66.91	1749.87
6	268881535	67.01	1749.87
6	270449677	67.11	1749.87
6	272040477	67.21	1749.87
6	273614250	67.31	1749.87
6	275187318	67.41	1749.87
6	276772861	67.51	1749.87
6	278343582	67.61	1749.87
6	279928906	67.71	1749.87
6	281517858	67.81	1749.87
6	283081399	67.91	1749.87
6	284661025	68.01	1749.87
6	286252661	68.11	1749.87
6	287827996	68.21	1749.87
6	289404704	68.31	1749.87
6	290989198	68.41	1749.87
6	292567972	68.51	1749.87
6	294147609	68.61	1749.87
6	295744559	68.71	1749.87
6	297321953	68.81	1749.87
6	298911721	68.91	1749.87
6	300472924	69.01	1749.87
6	302064943	69.11	1749.87
6	303657290	69.21	1749.87
6	305220726	69.31	1749.87
6	306804498	69.41	1749.87
6	308392740	69.51	1749.87
6	309961098	69.61	1749.87
6	311554590	69.71	1749.87
6	313131168	69.81	1749.87
6	314701114	69.91	1749.87
5	232	1.11	27.78
5	663	1.21	27.7799
5	1096	1.31	27.7798
5	1530	1.41	27.7797
5	1958	1.51	27.7796
5	2391	1.61	27.7795
5	2818	1.71	27.7794
5	3252	1.81	27.7792
5	3685	1.91	27.7791
5	4121	2.01	27.7789
5	4554	2.11	27.7788
5	4981	2.21	27.7787
5	5414	2.31	27.7785
5	5835	2.41	27.7784
5	6268	2.51	27.7783
5	6701	2.61	27.7782
5	7134	2.71	27.7782
5	7561	2.81	27.7781
5	7994	2.91	27.778
5	8416	3.01	27.7779
5	8849	3.11	27.7779
5	9282	3.21	27.7779
5	9709	3.31	27.7778
5	10136	3.41	27.7778
5	10563	3.51	27.7778
5	10957	3.61	27.7777
5	11387	3.71	27.7777
5	11820	3.81	27.7777
5	12247	3.91	27.7777
5	12687	4.01	27.7777
5	13120	4.11	27.7777
5	13547	4.21	27.7777
5	13980	4.31	27.7777
5	14410	4.41	27.7777
5	14843	4.51	27.7777
5	15264	4.61	27.7777
5	15685	4.71	27.7777
5	16118	4.81	27.7777
5	16545	4.91	27.7777
5	16985	5.01	27.7777
5	17418	5.11	27.7777
5	17851	5.21	27.7778
5	18272	5.31	27.7778
5	18705	5.41	27.7778
5	19089	5.51	27.7778
5	19522	5.61	27.7778
5	19943	5.71	27.7778
5	20370	5.81	27.7778
5	20803	5.91	27.7778
5	21243	6.01	27.7778
5	21676	6.11	27.7778
5	22103	6.21	27.7778
5	22527	6.31	27.7778
5	22960	6.41	27.7778
5	23348	6.51	27.7778
5	23781	6.61	27.7778
5	24211	6.71	27.7778
5	24638	6.81	27.7778
5	25071	6.91	27.7778
5	25502	7.01	27.7778
5	25929	7.11	27.7778
5	26359	7.21	27.7778
5	26786	7.31	27.7778
5	27216	7.41	27.7778
5	27637	7.51	27.7778
5	28070	7.61	27.7778
5	28497	7.71	27.7778
5	28924	7.81	27.7778
5	29357	7.91	27.7778
5	29791	8.01	27.7778
5	30224	8.11	27.7778
5	30651	8.21	27.7778
5	31078	8.31	27.7778
5	31508	8.41	27.7778
5	31941	8.51	27.7778
5	32371	8.61	27.7778
5	32804	8.71	27.7778
5	33225	8.81	27.7778
5	33652	8.91	27.7778
5	34086	9.01	27.7778
5	34519	9.11	27.7778
5	34952	9.21	27.7778
5	35382	9.31	27.7778
5	35815	9.41	27.7778
5	36236	9.51	27.7778
5	36669	9.61	27.7778
5	37102	9.71	27.7778
5	37529	9.81	27.7778
5	37962	9.91	27.7778
5	38402	10.01	27.7778
5	38829	10.11	27.7778
5	39259	10.21	27.7778
5	39692	10.31	27.7778
5	40125	10.41	27.7778
5	40552	10.51	27.7778
5	40973	10.61	27.7778
5	41406	10.71	27.7778
5	41836	10.81	27.7778
5	42263	10.91	27.7778
5	42703	11.01	27.7778
5	43118	11.11	27.7778
5	43551	11.21	27.7778
5	43981	11.31	27.7778
5	44402	11.41	27.7778
5	44829	11.51	27.7778
5	45262	11.61	27.7778
5	45683	11.71	27.7778
5	46116	11.81	27.7778
5	46546	11.91	27.7778
5	46980	12.01	27.7778
5	47413	12.11	27.7778
5	47840	12.21	27.7778
5	48273	12.31	27.7778
5	48694	12.41	27.7778
5	49121	12.51	27.7778
5	49554	12.61	27.7778
5	49978	12.71	27.7778
5	50408	12.81	27.7778
5	50841	12.91	27.7778
5	51278	13.01	27.7778
5	51705	13.11	27.7778
5	52132	13.21	27.7778
5	52565	13.31	27.7778
5	52998	13.41	27.7778
5	53425	13.51	27.7778
5	53855	13.61	27.7778
5	54282	13.71	27.7778
5	54709	13.81	27.7778
5	55133	13.91	27.7778
5	55570	14.01	27.7778
5	56003	14.11	27.7778
5	56436	14.21	27.7778
5	56863	14.31	27.7778
5	57290	14.41	27.7778
5	57717	14.51	27.7778
5	58150	14.61	27.7778
5	58583	14.71	27.7778
5	59007	14.81	27.7778
5	59440	14.91	27.7778
5	59874	15.01	27.7778
5	60307	15.11	27.7778
5	60740	15.21	27.7778
5	61173	15.31	27.7778
5	61591	15.41	27.7778
5	62015	15.51	27.7778
5	62442	15.61	27.7778
5	62875	15.71	27.7778
5	63305	15.81	27.7778
5	63723	15.91	27.7778
5	64157	16.01	27.7778
5	64590	16.11	27.7778
5	65011	16.21	27.7778
5	65444	16.31	27.7778
5	65865	16.41	27.7778
5	66298	16.51	27.7778
5	66716	16.61	27.7778
5	67143	16.71	27.7778
5	67570	16.81	27.7778
5	68000	16.91	27.7778
5	68440	17.01	27.7778
5	68873	17.11	27.7778
5	69303	17.21	27.7778
5	69727	17.31	27.7778
5	70154	17.41	27.7778
5	70581	17.51	27.7778
5	71008	17.61	27.7778
5	71429	17.71	27.7778
5	71850	17.81	27.7778
5	72268	17.91	27.7778
5	72702	18.01	27.7778
5	73135	18.11	27.7778
5	73568	18.21	27.7778
5	73995	18.31	27.7778
5	74428	18.41	27.7778
5	74855	18.51	27.7778
5	75288	18.61	27.7778
5	75721	18.71	27.7778
5	76154	18.81	27.7778
5	76572	18.91	27.7778
5	76961	19.01	27.7778
5	77391	19.11	27.7778
5	77821	19.21	27.7778
5	78236	19.31	27.7778
5	78669	19.41	27.7778
5	79096	19.51	27.7778
5	79529	19.61	27.7778
5	79956	19.71	27.7778
5	80383	19.81	27.7778
5	80816	19.91	27.7778
5	81217	20.01	27.7778
5	81650	20.11	27.7778
5	82080	20.21	27.7778
5	82513	20.31	27.7778
5	82946	20.41	27.7778
5	83376	20.51	27.7778
5	83797	20.61	27.7778
5	84227	20.71	27.7778
5	84657	20.81	27.7778
5	85084	20.91	27.7778
5	85524	21.01	27.7778
5	85933	21.11	27.7778
5	86363	21.21	27.7778
5	86796	21.31	27.7778
5	87214	21.41	27.7778
5	87647	21.51	27.7778
5	88074	21.61	27.7778
5	88501	21.71	27.7778
5	88934	21.81	27.7778
5	89364	21.91	27.7778
5	89795	22.01	27.7778
5	90228	22.11	27.7778
5	90655	22.21	27.7778
5	91088	22.31	27.7778
5	91512	22.41	27.7778
5	91936	22.51	27.7778
5	92327	22.61	27.7778
5	92754	22.71	27.7778
5	93187	22.81	27.7778
5	93608	22.91	27.7778
5	94045	23.01	27.7778
5	94475	23.11	27.7778
5	94908	23.21	27.7778
5	95329	23.31	27.7778
5	95762	23.41	27.7778
[...]
90	96478629	56.105853886538	6
90	98064207	56.206597770768	6
90	101207860	56.405323371278	6
90	104407894	56.608071665799	6
90	107624087	56.811909448755	6
90	109179046	56.910253174414	6
90	112365870	57.111554535219	6
90	117010861	57.405966021702	6
90	123350270	57.806531866767	6
90	128102960	58.106710374975	6
90	129693994	58.207679092544	6
90	134542923	58.514383838385	6
90	136004419	58.607175920813	6
90	137627780	58.709864765482	6
90	139239951	58.81179096808	6
90	145549418	59.211210029106	6
90	148624133	59.406293060137	6
90	159807758	60.113622767139	6
90	164493561	60.410095025519	6
90	175600096	61.112016087226	6
90	177088146	61.206873309478	6
90	178676422	61.306720401371	6
90	180283578	61.40953767035	6
90	181813836	61.505379543934	6
90	186597560	61.807809623411	6
90	188194067	61.909334403588	6
90	192902345	62.20671009532	6
90	194484739	62.307012676532	6
90	197675841	62.508838443997	6
90	207175249	63.109509568055	6
90	210266954	63.305334612968	6
90	213552024	63.512981430544	6
90	215024625	63.606186753885	6
90	218310342	63.8130788398	6
90	219832022	63.909498469362	6
90	221397840	64.008795238902	6
90	222996199	64.10964417527	6
90	224537097	64.206814190013	6
90	229260531	64.506336376001	6
90	230915448	64.609406355246	6
90	232538382	64.712258283566	6
90	237238307	65.009728354508	6
90	238755590	65.106075331304	6
90	245136820	65.50953433474	6
90	246734214	65.609940851655	6
90	249933384	65.813158784384	6
90	254579718	66.106715627187	6
90	256164810	66.206689530307	6
90	259300906	66.405348035887	6
90	262532926	66.608531354629	6
90	264135540	66.710407908726	6
90	265725168	66.810388219752	6
90	270378995	67.105796508787	6
90	271984700	67.206624232017	6
90	275139648	67.406939100798	6
90	276813090	67.512258173964	6
90	278303477	67.607081788424	6
90	281468208	67.806848806148	6
90	283096795	67.911017012575	6
90	284762586	68.015652570956	6
90	286274043	68.111323546796	6
90	287756332	68.205512883021	6
90	289420382	68.310573184937	6
90	292512554	68.506374172491	6
90	294077462	68.605943350905	6
90	295666325	68.706558095132	6
90	297263849	68.806867810415	6
90	298861520	68.907290248376	6
90	300490220	69.010284298121	6
90	302081695	69.111110862541	6
90	303577759	69.206230111143	6
90	305304089	69.314737199444	6
90	306761705	69.40667702502	6
90	308446335	69.513048461225	6
90	311589697	69.71311711271	6
90	313168347	69.812034359032	6
90	314654831	69.906268025534	6
81	910	1.255201933977	6
81	1344	1.355261447665	6
81	1778	1.45519096136	6
81	2205	1.555250475062	6
81	2638	1.655179988786	6
81	3066	1.755226502539	6
81	3499	1.855195016336	6
81	3927	1.955254530195	6
81	4368	2.055262044128	6
81	4801	2.155178558155	6
81	5228	2.255264072293	6
81	5655	2.35522353976	6
81	6082	2.45519205418	6
81	6515	2.555173568771	6
81	6948	2.65516808355	6
81	7381	2.75517559854	6
81	7808	2.855222113759	6
81	8232	2.955216629229	6
81	8663	3.055224144968	6
81	9096	3.155231660996	6
81	9529	3.255200177335	6
81	9950	3.355168694001	6
81	10377	3.455206163755	6
81	11201	3.655225009794	6
81	11634	3.755193527966	6
81	12067	3.855253046561	6
81	12494	3.955186471869	6
81	12934	4.055180991359	6
81	13361	4.155214511326	6
81	13794	4.255196031783	6
81	14227	4.355255552749	6
81	14657	4.455185074239	6
81	15084	4.555170548213	6
81	15505	4.65525997678	6
81	15932	4.75522849994	6
81	16359	4.855184023686	6
81	16792	4.955178548031	6
81	17232	5.055199072993	6
81	17665	5.155167598585	6
81	18092	5.255175124818	6
81	18519	5.355208651708	6
81	19336	5.55525346914	6
81	19763	5.655247998075	6
81	20184	5.755203527715	6
81	20617	5.855227862221	6
81	21050	5.955209393306	6
81	21490	6.055255925134	6
81	22341	6.255218991051	6
81	22774	6.355174525161	6
81	23595	6.555167354593	6
81	24025	6.655265891075	6
81	24458	6.755182428366	6
81	24885	6.855163966477	6
81	25318	6.955184505412	6
81	25749	7.055179045181	6
81	26176	7.155186585792	6
81	26600	7.255233127253	6
81	27033	7.355162669572	6
81	27457	7.455261212754	6
81	27884	7.555203756806	6
81	28311	7.655228301729	6
81	28744	7.755170847541	6
81	29171	7.855178394242	6
81	29598	7.955211941837	6
81	30038	8.055245490333	6
81	30465	8.155218039731	6
81	30898	8.255173590044	6
81	31322	8.355246141273	6
81	31755	8.455162693422	6
81	32188	8.555261246496	6
81	32618	8.655190800495	6
81	33039	8.755237355428	6
81	33472	8.855179911297	6
81	33893	8.955265468103	6
81	34333	9.055169025852	6
81	34766	9.155241584548	6
81	35196	9.255223144192	6
81	35629	9.355191704787	6
81	36056	9.455238266334	6
81	36483	9.555249729937	6
81	36916	9.655231293397	6
81	37343	9.755225857818	6
81	37776	9.855233423199	6
81	38209	9.955162989541	6
81	38649	10.055209556848	6
81	39073	10.15523012512	6
81	39506	10.255250694356	6
81	39939	10.355245264561	6
81	40366	10.45517483573	6
81	40793	10.555182407867	6
81	41220	10.655206930099	6
81	41650	10.755240504173	6
81	42083	10.855209079212	6
81	42510	10.95520365522	6
81	42932	11.055224232197	6
81	43365	11.155205810141	6
81	43798	11.25520038905	6
81	44228	11.355194968925	6
81	44649	11.455245498241	6
81	45076	11.555201080044	6
81	45497	11.655199606932	6
81	45930	11.755168190659	6
81	46360	11.855188775347	6
81	46787	11.955170360992	6
81	47227	12.055242947593	6
81	47660	12.155250535151	6
81	48087	12.255193123661	6
81	48511	12.355265713125	6
81	48935	12.455169303536	6
81	49368	12.555176894894	6
81	49801	12.655223487197	6
81	50222	12.755218080442	6
81	50655	12.855264674627	6
81	51085	12.95523326975	6
81	51519	13.055179808556	6
81	51952	13.155252405547	6
81	52379	13.255185898808	6
81	52812	13.355232497656	6
81	53239	13.455240097425	6
81	53672	13.555169698114	6
81	54096	13.655220241925	6
81	54523	13.755253844447	6
81	54953	13.85522244788	6
81	55377	13.955191052219	6
81	55817	14.055198657463	6
81	56250	14.155232263607	6
81	56680	14.255239870647	6
81	57104	14.355169478581	6
81	57531	14.455190087405	6
81	57964	14.555171697117	6
81	58397	14.65521830771	6
81	58827	14.755212919183	6
81	59254	14.855194531531	6
81	59681	14.955167085871	6
81	60121	15.055265699956	6
81	60554	15.155247314903	6
81	60987	15.255163930708	6
81	61408	15.355214488186	6
81	61835	15.455170105697	6
81	62256	15.555255724055	6
81	62689	15.655198343253	6
81	63122	15.755179963289	6
81	63549	15.855252584159	6
81	63970	15.955195205857	6
81	64404	16.055241828381	6
81	64831	16.155175451722	6
81	65258	16.255183075882	6
81	65679	16.355255700853	6
81	66112	16.455224326631	6
81	66545	16.555179953213	6
81	66963	16.655265580591	6
81	67384	16.755195208765	6
81	67814	16.855176837727	6
81	68247	16.955249467472	6
81	68687	17.055192097998	6
81	69120	17.155186729298	6
81	69544	17.255259361368	6
81	69974	17.355240994204	6
81	70395	17.4551706278	6
81	70822	17.555204262152	6
81	71252	17.655263897258	6
81	71670	17.755249476261	6
81	72085	17.855192112856	6
81	72949	18.055172148914	6
81	73382	18.155166787707	6
81	73809	18.255213427223	6
81	74242	18.355169067457	6
81	75102	18.555249350058	6
81	75535	18.65519199242	6
81	75968	18.755264635482	6
81	76395	18.855207279235	6
81	77208	19.055234108383	6
81	77635	19.155241754193	6
81	78050	19.25521040068	6
81	78483	19.355166047835	6
81	78913	19.45523869566	6
81	79343	19.555207344144	6
81	79776	19.655201993286	6
81	80203	19.755170643078	6
81	80630	19.85521729352	6
81	81464	20.055249304213	6
81	81894	20.155230956568	6
81	82327	20.255173609551	6
81	82760	20.355168263159	6
81	83193	20.455253917385	6
81	83611	20.555196572226	6
81	84041	20.655194982574	6
81	84471	20.755202638629	6
81	84904	20.855210295286	6
81	85331	20.955243952541	6
81	85765	21.055212610385	6
81	86177	21.155220268814	6
81	86610	21.255227927829	6
81	87043	21.355248587422	6
81	87461	21.455191247587	6
81	87888	21.55526390832	6
81	88318	21.655193569618	6
81	88748	21.755175231477	6
81	89178	21.855260893889	6
81	89602	21.955255556854	6
81	90042	22.055185220364	6
81	90472	22.15521888442	6
81	90902	22.255187549011	6
81	91326	22.355195214136	6
81	91753	22.455254879789	6
81	92574	22.655221964188	6
81	93001	22.7552036314	6
81	93428	22.855237299127	6
81	93852	22.95524496736	6
81	94289	23.055187636098	6
81	94722	23.155260305333	6
81	95155	23.255202975063	6
81	95576	23.355262645284	6
81	96427	23.555173987183	6
81	96857	23.655207658852	6
81	97272	23.75516721141	6
81	97699	23.855265884023	6
81	98129	23.955169557103	6
81	98990	24.155223904644	6
81	99423	24.255192579097	6
81	99856	24.355174254002	6
81	100678	24.555245301196	6
81	101105	24.65525297743	6
81	101538	24.755221654096	6
81	101962	24.855177331195	6
81	102395	24.955237008718	6
81	102823	25.055179686667	6
81	103256	25.155204113237	6
81	103683	25.25521179202	6
81	104116	25.355232471215	6
81	104549	25.455175150819	6
81	104970	25.555212767094	6
81	105403	25.655181447505	6
81	105827	25.75525412831	6
81	106260	25.855183809511	6
81	106693	25.955191491104	6
81	107127	26.055264173082	6
81	107560	26.155167855444	6
81	107993	26.255240538183	6
81	108417	26.355209221301	6
81	108847	26.455190904789	6
81	109280	26.55522458865	6
81	109707	26.655193272876	6
81	110134	26.755252957464	6
81	110567	26.855260642412	6
81	110994	26.955177327715	6
81	111428	27.055250013371	6
81	111861	27.155166699377	6
81	112282	27.255165321654	6
81	112712	27.355173008348	6
81	113136	27.455193695381	6
81	113551	27.555162382751	6
81	113984	27.655235070453	6
81	114405	27.755194696278	6
81	115265	27.95522307332	6
81	115699	28.055217762325	6
81	116129	28.155186451649	6
81	116553	28.255259141287	6
81	116986	28.355227831235	6
81	117419	28.455261521493	6
81	117846	28.555217212056	6
81	118273	28.655198902921	6
81	118700	28.755206594088	6
81	119130	28.855257030258	6
81	119557	28.955225722015	6
81	119997	29.055194414064	6
81	121213	29.355211866748	6
81	121628	29.455245559935	6
81	122061	29.555201253397	6
81	122482	29.655182947135	6
81	122915	29.755164641146	6
81	123348	29.855185335426	6
81	123778	29.955258029972	6
81	124191	30.055165661854	6
81	124624	30.155238356925	6
81	125045	30.255184987741	6
81	125908	30.45518737917	6
81	126329	30.555260075262	6
81	126756	30.655228771603	6
81	127189	30.755171468191	6
81	127616	30.855218165023	6
81	128046	30.955238862096	6
81	128486	31.055246559407	6
81	128919	31.155228256956	6
81	129740	31.355208395817	6
81	130164	31.455216094061	6
81	130597	31.555249792534	6
81	131024	31.655244491231	6
81	131457	31.755252190151	6
81	131890	31.855168889291	6
81	132323	31.955254588652	6
81	132763	32.055262288226	6
81	133196	32.155204988014	6
81	133611	32.255199688015	6
81	134038	32.355233388226	6
81	134471	32.455192831121	6
81	134904	32.555239531743	6
81	135337	32.655195232567	6
81	135764	32.755232807317	6
81	136197	32.855201508542	6
81	136621	32.955222209965	6
81	137479	33.155224613393	6
81	137900	33.255206315394	6
81	138327	33.355175017584	6
81	138760	33.455221719962	6
81	139190	33.555164422526	6
81	139617	33.655198125273	6
81	140032	33.7552578282	6
81	140465	33.855187531306	6
81	140898	33.955234234591	6
81	141329	34.055202938052	6
81	141753	34.155184641687	6
81	142186	34.255218345494	6
81	142613	34.35518704947	6
81	143046	34.455181753618	6
81	143479	34.555254457932	6
81	143912	34.655223162409	6
81	144345	34.755256867052	6
81	144769	34.855173571855	6
81	145591	35.05520566285	6
81	146018	35.155174368127	6
81	146442	35.255208073561	6
81	146872	35.355228779148	6
81	147287	35.455171484886	6
81	147714	35.555218190773	6
81	148568	35.755181602991	6
81	149001	35.85522830932	6
81	149434	35.955236015795	6
81	149868	36.05517872241	6
81	150286	36.155199429165	6
81	150713	36.255259136062	6
81	151143	36.355205584031	6
81	151576	36.455265291202	6
81	152006	36.555246998506	6
81	152430	36.655180578111	6
81	152854	36.755175285684	6
81	153287	36.855234993386	6
81	153720	36.955190701215	6
81	154154	37.055224409175	6
81	154581	37.155258117261	6
81	155005	37.25525282547	6
81	155432	37.355208533803	6
81	155859	37.455242242258	6
81	156280	37.555184950837	6
81	156713	37.655183400099	6
81	157146	37.755256108917	6
81	157570	37.85526381785	6
81	158858	38.155169945341	6
81	159288	38.255242654731	6
81	160148	38.455206073843	6
81	160578	38.555265783563	6
81	160999	38.655247493392	6
81	161423	38.755177203326	6
81	162286	38.955179623509	6
81	162720	39.055200333756	6
81	163138	39.155264044103	6
81	163571	39.255171494734	6
81	163998	39.355170140747	6
81	164425	39.455242851394	6
81	164858	39.555237562138	6
81	165279	39.655171207831	6
81	165712	39.755256918767	6
81	166133	39.8551736298	6
81	166566	39.955233340925	6
81	167000	40.055228052141	6
81	167812	40.255221152355	6
81	168245	40.355176863841	6
81	168666	40.455210575415	6
81	169499	40.655212998827	6
81	169923	40.755168710661	6
81	170350	40.85521542258	6
81	170774	40.955210134582	6
81	171214	41.055178846668	6
81	171647	41.155251558834	6
81	172068	41.255237205887	6
81	172501	41.355218918212	6
81	172934	41.455265630618	6
81	173367	41.555221343102	6
81	173797	41.655229055664	6
81	174230	41.7551717683	6
81	174648	41.855179481012	6
81	175063	41.955200193801	6
81	175503	42.055220906664	6
81	175933	42.155215619598	6
81	176360	42.255223332607	6
81	176793	42.355244045687	6
81	177223	42.455186758835	6
81	177656	42.555207472055	6
81	178089	42.655254185343	6
81	178522	42.755222898702	6
81	178949	42.855191612127	6
81	180246	43.155188752797	6
81	180679	43.255235466484	6
81	181112	43.355165180233	6
81	181539	43.455198894047	6
81	181966	43.55524954305	6
81	182396	43.655257256988	6
81	182829	43.755225970987	6
81	183262	43.855194685046	6
81	183695	43.955189399165	6
81	184135	44.055249113344	6
81	184568	44.155256827579	6
81	184995	44.255238541871	6
81	185416	44.355246256221	6
81	185846	44.455162970627	6
81	186273	44.55526168509	6
81	186706	44.655165399607	6
81	187133	44.75521211418	6
81	187560	44.855193828806	6
81	187987	44.955175543486	6
81	188412	45.055196258219	6
81	188845	45.155203973005	6
81	189272	45.255237687839	6
81	189684	45.355258402726	6
81	190117	45.455240117662	6
81	190541	45.555208832649	6
81	190968	45.655190547685	6
81	191386	45.755185262769	6
81	191816	45.855183717112	6
81	192246	45.955204432292	6
81	192683	46.055251147518	6
81	193101	46.155223862791	6
81	193531	46.25521857811	6
81	193961	46.355252293473	6
81	194391	46.455195008883	6
81	194824	46.555189724336	6
81	195257	46.655210439835	6
81	195684	46.755231155377	6
81	196117	46.855251870961	6
81	196550	46.955207586587	6
81	196990	47.055254302255	6
81	198208	47.35523292768	6
81	198641	47.455240643511	6
81	199068	47.555222359383	6
81	199501	47.655230075293	6
81	199922	47.755224791242	6
81	200352	47.85518050723	6
81	200785	47.955188223253	6
81	201213	48.055234939314	6
81	201646	48.155216655413	6
81	202067	48.255237371548	6
81	202494	48.355245087718	6
81	202927	48.455252803923	6
81	203354	48.555234520164	6
81	203781	48.65516423644	6
81	204214	48.755184952749	6
81	204647	48.855205669095	6
81	205080	48.955265385474	6
81	205520	49.055195101885	6
81	205947	49.155193753009	6
81	206380	49.255162469486	6
81	206813	49.355235185994	6
81	207246	49.455177902534	6
81	207679	49.555172619105	6
81	208109	49.655180335708	6
81	208539	49.755201052342	6
81	208960	49.855247769006	6
81	209387	49.9552034857	6
81	4119924	50.262072573927	6
81	5585209	50.354679005821	6
81	7265721	50.461360453475	6
81	11959618	50.758298913403	6
81	13532028	50.857328955088	6
81	30989424	51.962578627354	6
81	35676373	52.258619419057	6
81	57882868	53.664674278236	6
81	60918831	53.856235588496	6
81	64106798	54.05771181587	6
81	75136638	54.756001393462	6
81	86277821	55.461107571795	6
81	87810415	55.557401448129	6
81	94093291	55.954709781379	6
81	103702521	56.562989953405	6
81	108326751	56.855539372036	6
81	117831808	57.457189137554	6
81	138347756	58.755480912876	6
81	139985532	58.858876793955	6
81	147816947	59.355070003361	6
81	151005944	59.556891968552	6
81	152559971	59.655092303878	6
81	169961829	60.756036243538	6
81	171570868	60.85798199857	6
81	176358281	61.160623350451	6
81	184261696	61.660327587107	6
81	189040498	61.962481686774	6
81	215833403	63.656387811874	6
81	230157522	64.562682443893	6
81	233328525	64.762464701691	6
81	234820437	64.856922678772	6
81	247541532	65.661151881398	6
81	260132530	66.457483951425	6
81	261672504	66.554724835221	6
81	271198568	67.156452546019	6
81	288540098	68.254688264254	6
81	291779001	68.460047610811	6
81	299667042	68.958362215445	6
112	4001	2	0
112	8297	3	0
112	12568	4	0
112	16866	5	0
112	21124	6	0
112	25386	7	0
112	29672	8	0
112	33967	9	0
112	38283	10	0
112	42584	11	0
112	46861	12	0
112	51159	13	0
112	55451	14	0
112	59755	15	0
112	64044	16	0
112	68321	17	0
112	72583	18	0
112	76851	19	0
112	81098	20	0
112	85405	21	0
112	89676	22	0
112	93926	23	0
112	98203	24	0
112	102469	25	0
112	106767	26	0
112	111068	27	0
112	115339	28	0
112	119631	29	0
112	123852	30	0
112	128120	31	0
112	132397	32	0
112	136695	33	0
112	140972	34	0
112	145225	35	0
112	149508	36	0
112	153794	37	0
112	158068	38	0
112	162360	39	0
112	166640	40	0
112	170848	41	0
112	175137	42	0
112	179450	43	0
112	183769	44	0
112	188055	45	0
112	192320	46	0
112	196624	47	0
112	200853	48	0
112	205154	49	0
112	209462	50	0
112	15776382	51	0
112	31596087	52	0
112	47380685	53	0
112	63183875	54	0
112	79001178	55	0
112	94802597	56	0
112	110605284	57	0
112	126412581	58	0
112	142190410	59	0
112	158012822	60	0
112	173807572	61	0
112	189640894	62	0
112	205425326	63	0
112	221268986	64	0
112	237079352	65	0
112	252893310	66	0
112	268713345	67	0
112	284499410	68	0
112	300334359	69	0
112	316125657	70	0
111	4001	2	0.029769
111	8297	3	0.033738
111	12568	4	0.033803047932
111	16866	5	0.034234
111	21124	6	0.034299050455
111	25386	7	0.033738
111	29672	8	0.03473
111	33967	9	0.03473
111	38283	10	0.034234
111	42584	11	0.03473
111	46861	12	0.034234
111	51159	13	0.034234
111	55451	14	0.033242
111	59755	15	0.034234
111	64044	16	0.033738
111	68321	17	0.034234
111	72583	18	0.034234
111	76851	19	0.033738
111	81098	20	0.033803063415
111	85405	21	0.03473
111	89676	22	0.03473
111	93926	23	0.034234
111	98203	24	0.033738
111	102469	25	0.033738
111	106767	26	0.034234
111	111068	27	0.03473
111	115339	28	0.033738
111	119631	29	0.03473
111	123852	30	0.033816064917
111	128120	31	0.032746
111	132397	32	0.034299065047
111	136695	33	0.03473
111	140972	34	0.034234
111	145225	35	0.033803065195
111	149508	36	0.034234
111	153794	37	0.03473
111	158068	38	0.034234
111	162360	39	0.033738
111	166640	40	0.034234
111	170848	41	0.03225
111	175137	42	0.034234
111	179450	43	0.034234
111	183769	44	0.03473
111	188055	45	0.03473
111	192320	46	0.034234
111	196624	47	0.034234
111	200853	48	0.033738
111	205154	49	0.03473
111	209462	50	0.033242
111	15776382	51	0.911508915159
111	31596087	52	0.921379596851
111	47380685	53	0.917188171943
111	63183875	54	0.919775088056
111	79001178	55	0.919355536454
111	94802597	56	0.916665092851
111	110605284	57	0.917633802331
111	126412581	58	0.914941836599
111	142190410	59	0.918452793478
111	158012822	60	0.920379492762
111	173807572	61	0.925174843423
111	189640894	62	0.915010284134
111	205425326	63	0.91411724294
111	221268986	64	0.916043233565
111	237079352	65	0.9217479304
111	252893310	66	0.913040164836
111	268713345	67	0.913013083354
111	284499410	68	0.918190200066
111	300334359	69	0.91478556269
111	316125657	70	0.920548193592
110	4001	2	6
110	8297	3	6
110	12568	4	6
110	16866	5	6
110	21124	6	6
110	25386	7	6
110	29672	8	6
110	33967	9	6
110	38283	10	6
110	42584	11	6
110	46861	12	6
110	51159	13	6
110	55451	14	6
110	59755	15	6
110	64044	16	6
110	68321	17	6
110	72583	18	6
110	76851	19	6
110	81098	20	6
110	85405	21	6
110	89676	22	6
110	93926	23	6
110	98203	24	6
110	102469	25	6
110	106767	26	6
110	111068	27	6
110	115339	28	6
110	119631	29	6
110	123852	30	6
110	128120	31	6
110	132397	32	6
110	136695	33	6
110	140972	34	6
110	145225	35	6
110	149508	36	6
110	153794	37	6
110	158068	38	6
110	162360	39	6
110	166640	40	6
110	170848	41	6
110	175137	42	6
110	179450	43	6
110	183769	44	6
110	188055	45	6
110	192320	46	6
110	196624	47	6
110	200853	48	6
110	205154	49	6
110	209462	50	6
110	15776382	51	6
110	31596087	52	6
110	47380685	53	6
110	63183875	54	6
110	79001178	55	6
110	94802597	56	6
110	110605284	57	6
110	126412581	58	6
110	142190410	59	6
110	158012822	60	6
110	173807572	61	6
110	189640894	62	6
110	205425326	63	6
110	221268986	64	6
110	237079352	65	6
110	252893310	66	6
110	268713345	67	6
110	284499410	68	6
110	300334359	69	6
110	316125657	70	6

