version 2
run NBCACC8mpsConf2-2-20210127-01:59:39-21718
attr configname NBCACC8mpsConf2
attr datetime 20210127-01:59:39
attr experiment NBCACC8mpsConf2
attr inifile CEBModule.ini
attr iterationvars "$nCars=7, $platoonSize=7, $nLanes=1, $humanCars=400, $humanLanes=3, $caccSpacing=3.0, $ploegH=0.5, $leaderHeadway=1.2, $leaderSpeed=100, $beaconInterval=0.1, $priority=4, $packetSize=200"
attr iterationvarsf nCars=7,platoonSize=7,nLanes=1,humanCars=400,humanLanes=3,caccSpacing=3.0,ploegH=0.5,leaderHeadway=1.2,leaderSpeed=100,beaconInterval=0.1,priority=4,packetSize=200-
attr measurement "$nCars=7, $platoonSize=7, $nLanes=1, $humanCars=400, $humanLanes=3, $caccSpacing=3.0, $ploegH=0.5, $leaderHeadway=1.2, $leaderSpeed=100, $beaconInterval=0.1, $priority=4, $packetSize=200"
attr network Highway
attr processid 21718
attr repetition 2
attr replication #2
attr resultdir results
attr runnumber 2
attr seedset 2
itervar beaconInterval 0.1
itervar caccSpacing 3.0
itervar humanCars 400
itervar humanLanes 3
itervar leaderHeadway 1.2
itervar leaderSpeed 100
itervar nCars 7
itervar nLanes 1
itervar packetSize 200
itervar platoonSize 7
itervar ploegH 0.5
itervar priority 4
param *.manager.useGui false
param *.node[*].scenario_type "\"BrakingScenario\""
param *.node[*].prot.isRelayEnabled true
param *.node[*].runtimeManager.rmEnabled false
param *.node[*].prot.isCoopEmBrkEnabled true
param *.node[*].prot.isNBEnabled true
param *.node[*].prot.decelarationRate "8 mpsps"
param *.node[*].prot.brakeAtTime 60s
param *.node[*].prot.speedOfLeader 100kmph
param *.node[*].prot.DENMInterval 0.1s
param *.node[*].scenario.leaderOscillationFrequency "0.2 Hz"
param *.playgroundSizeX 65000m
param *.playgroundSizeY 25000m
param *.playgroundSizeZ 50m
param **.debug false
param **.coreDebug false
param *.annotations.draw false
param *.obstacles.debug false
param *.world.useTorus false
param *.world.use2D false
param *.manager.updateInterval 0.01s
param *.manager.host "\"localhost\""
param *.manager.moduleType "\"vtypeauto=org.car2x.veins.modules.application.platooning.PlatoonCar vtypehuman=HumanCar\""
param *.manager.moduleName "\"vtypeauto=node vtypehuman=human\""
param *.manager.moduleDisplayString "\"\""
param *.manager.autoShutdown true
param *.manager.margin 25
param *.connectionManager.sendDirect true
param *.connectionManager.maxInterfDist 2600m
param *.connectionManager.drawMaxIntfDist false
param *.**.nic.mac1609_4.useServiceChannel false
param *.**.nic.mac1609_4.txPower 100mW
param *.**.nic.mac1609_4.bitrate 6Mbps
param *.**.nic.phy80211p.sensitivity -94dBm
param *.**.nic.phy80211p.maxTXPower 100mW
param *.**.nic.phy80211p.useThermalNoise true
param *.**.nic.phy80211p.thermalNoise -95dBm
param *.**.nic.phy80211p.decider "xmldoc(\"config.xml\")"
param *.**.nic.phy80211p.analogueModels "xmldoc(\"config.xml\")"
param *.**.nic.phy80211p.usePropagationDelay true
param *.node[*].mobility.x 0
param *.node[*].mobility.y 0
param *.node[*].mobility.z 1.895
param *.human[*].mobility.x 0
param *.human[*].mobility.y 0
param *.human[*].mobility.z 1.895
param **.seed 2
param *.manager.configFile "\"./sumocfg/freeway.sumo.cfg\""
param *.node[*].scenario.vehicleFile "\"./sumocfg/vehicles.xml\""
param **.numberOfCars 7
param **.numberOfCarsPerPlatoon 7
param **.numberOfLanes 1
param **.numberOfHumanCars 400
param **.numberOfHumanLanes 3
param *.node[*].helper_type "\"PositionHelper\""
param *.node[*].helper.nLanes 1
param *.node[*].helper.platoonSize 7
param *.node[*].helper.nCars 7
param *.node[*].scenario.caccSpacing 3.0m
param *.node[*].scenario.caccC1 0.5
param *.node[*].scenario.caccXi 1
param *.node[*].scenario.caccOmegaN "0.2 Hz"
param *.node[*].scenario.engineTau "0.5 s"
param *.node[*].scenario.ploegH 0.5s
param *.node[*].scenario.ploegKp 0.2
param *.node[*].scenario.ploegKd 0.7
param *.node[*].scenario.useRealisticEngine false
param **.numericController 1
param *.node[*].scenario.controller "\"CACC\""
param **.headway 0.5s
param *.node[*].scenario.accHeadway 0.5s
param *.node[*].scenario.leaderHeadway 1.2s
param *.node[*].scenario.leaderSpeed 100kmph
param *.node[*].appl_type "\"SimplePlatooningApp\""
param *.node[*].protocol_type "\"SimplePlatooningBeaconing\""
param *.node[*].prot.beaconingInterval 0.1s
param *.node[*].prot.priority 4
param *.node[*].prot.packetSize 200
param *.node[*].prot.ackPacketSize 50
param *.node[*].prot.useControllerAcceleration true
param *.node[*].unicast.packetLossRate 0.0
param *.human[*].prot.beaconingInterval ".02 s"
param *.human[*].prot.priority 4
param *.human[*].prot.packetSize 200
param *.human[*].prot.txPower "100 mW"
param *.human[*].prot.bitrate "3 Mbps"
param **.traffic_type "\"PlatoonsPlusHumanTraffic\""
param **.traffic.platoonInsertTime "1 s"
param **.traffic.humanInsertTime "50 s"
param **.traffic.platoonInsertSpeed 100kmph
param **.traffic.nCars 7
param **.traffic.humanCars 400
param **.traffic.platoonSize 7
param **.traffic.nLanes 1
param **.traffic.humanLanes 3
param **.traffic.platooningVType "\"vtypeauto\""
param **.traffic.humanVType "\"vtypehuman\""
param **.traffic.platoonInsertDistance 3.0m
param **.traffic.platoonInsertHeadway 0s
param **.traffic.platoonLeaderHeadway 1.2s

vector 0 Highway.node[0].appl distance ETV
vector 1 Highway.node[0].appl relativeSpeed ETV
vector 2 Highway.node[0].appl nodeId ETV
vector 3 Highway.node[0].appl acceleration ETV
vector 4 Highway.node[0].appl controllerAcceleration ETV
vector 5 Highway.node[0].appl speed ETV
vector 6 Highway.node[0].appl posx ETV
vector 7 Highway.node[0].appl posy ETV
vector 8 Highway.node[1].appl distance ETV
vector 9 Highway.node[1].appl relativeSpeed ETV
vector 10 Highway.node[1].appl nodeId ETV
vector 11 Highway.node[1].appl acceleration ETV
vector 12 Highway.node[1].appl controllerAcceleration ETV
vector 13 Highway.node[1].appl speed ETV
vector 14 Highway.node[1].appl posx ETV
vector 15 Highway.node[1].appl posy ETV
vector 16 Highway.node[2].appl distance ETV
vector 17 Highway.node[2].appl relativeSpeed ETV
vector 18 Highway.node[2].appl nodeId ETV
vector 19 Highway.node[2].appl acceleration ETV
vector 20 Highway.node[2].appl controllerAcceleration ETV
vector 21 Highway.node[2].appl speed ETV
vector 22 Highway.node[2].appl posx ETV
vector 23 Highway.node[2].appl posy ETV
vector 24 Highway.node[3].appl distance ETV
vector 25 Highway.node[3].appl relativeSpeed ETV
vector 26 Highway.node[3].appl nodeId ETV
vector 27 Highway.node[3].appl acceleration ETV
vector 28 Highway.node[3].appl controllerAcceleration ETV
vector 29 Highway.node[3].appl speed ETV
vector 30 Highway.node[3].appl posx ETV
vector 31 Highway.node[3].appl posy ETV
vector 32 Highway.node[4].appl distance ETV
vector 33 Highway.node[4].appl relativeSpeed ETV
vector 34 Highway.node[4].appl nodeId ETV
vector 35 Highway.node[4].appl acceleration ETV
vector 36 Highway.node[4].appl controllerAcceleration ETV
vector 37 Highway.node[4].appl speed ETV
vector 38 Highway.node[4].appl posx ETV
vector 39 Highway.node[4].appl posy ETV
vector 40 Highway.node[5].appl distance ETV
vector 41 Highway.node[5].appl relativeSpeed ETV
vector 42 Highway.node[5].appl nodeId ETV
vector 43 Highway.node[5].appl acceleration ETV
vector 44 Highway.node[5].appl controllerAcceleration ETV
vector 45 Highway.node[5].appl speed ETV
vector 46 Highway.node[5].appl posx ETV
vector 47 Highway.node[5].appl posy ETV
vector 48 Highway.node[6].appl distance ETV
vector 49 Highway.node[6].appl relativeSpeed ETV
vector 50 Highway.node[6].appl nodeId ETV
vector 51 Highway.node[6].appl acceleration ETV
vector 52 Highway.node[6].appl controllerAcceleration ETV
vector 53 Highway.node[6].appl speed ETV
vector 54 Highway.node[6].appl posx ETV
vector 55 Highway.node[6].appl posy ETV
vector 56 Highway.node[6].prot frontDelay ETV
vector 57 Highway.node[6].prot frontDelayId ETV
vector 58 Highway.node[6].prot frontTransmissionN ETV
vector 59 Highway.node[1].prot leaderDelay ETV
vector 60 Highway.node[1].prot leaderDelayId ETV
vector 61 Highway.node[1].prot leaderTransmissionN ETV
vector 62 Highway.node[1].prot frontDelay ETV
vector 63 Highway.node[1].prot frontDelayId ETV
vector 64 Highway.node[1].prot frontTransmissionN ETV
vector 65 Highway.node[2].prot leaderDelay ETV
vector 66 Highway.node[2].prot leaderDelayId ETV
vector 67 Highway.node[2].prot leaderTransmissionN ETV
vector 68 Highway.node[3].prot leaderDelay ETV
vector 69 Highway.node[3].prot leaderDelayId ETV
vector 70 Highway.node[3].prot leaderTransmissionN ETV
vector 71 Highway.node[4].prot leaderDelay ETV
vector 72 Highway.node[4].prot leaderDelayId ETV
vector 73 Highway.node[4].prot leaderTransmissionN ETV
vector 74 Highway.node[5].prot leaderDelay ETV
vector 75 Highway.node[5].prot leaderDelayId ETV
vector 76 Highway.node[5].prot leaderTransmissionN ETV
vector 77 Highway.node[6].prot leaderDelay ETV
vector 78 Highway.node[6].prot leaderDelayId ETV
vector 79 Highway.node[6].prot leaderTransmissionN ETV
vector 80 Highway.node[4].prot frontDelay ETV
vector 81 Highway.node[4].prot frontDelayId ETV
vector 82 Highway.node[4].prot frontTransmissionN ETV
vector 83 Highway.node[3].prot frontDelay ETV
vector 84 Highway.node[3].prot frontDelayId ETV
vector 85 Highway.node[3].prot frontTransmissionN ETV
vector 86 Highway.node[5].prot frontDelay ETV
vector 87 Highway.node[5].prot frontDelayId ETV
vector 88 Highway.node[5].prot frontTransmissionN ETV
vector 89 Highway.node[2].prot frontDelay ETV
vector 90 Highway.node[2].prot frontDelayId ETV
vector 91 Highway.node[2].prot frontTransmissionN ETV
vector 92 Highway.node[0].prot nodeId ETV
vector 93 Highway.node[0].prot busyTime ETV
vector 94 Highway.node[0].prot collisions ETV
vector 95 Highway.node[1].prot nodeId ETV
vector 96 Highway.node[1].prot busyTime ETV
vector 97 Highway.node[1].prot collisions ETV
vector 98 Highway.node[2].prot nodeId ETV
vector 99 Highway.node[2].prot busyTime ETV
vector 100 Highway.node[2].prot collisions ETV
vector 101 Highway.node[3].prot nodeId ETV
vector 102 Highway.node[3].prot busyTime ETV
vector 103 Highway.node[3].prot collisions ETV
vector 104 Highway.node[4].prot nodeId ETV
vector 105 Highway.node[4].prot busyTime ETV
vector 106 Highway.node[4].prot collisions ETV
vector 107 Highway.node[5].prot nodeId ETV
vector 108 Highway.node[5].prot busyTime ETV
vector 109 Highway.node[5].prot collisions ETV
vector 110 Highway.node[6].prot nodeId ETV
vector 111 Highway.node[6].prot busyTime ETV
vector 112 Highway.node[6].prot collisions ETV
vector 113 Highway.node[1].prot firstDENMDelay ETV
vector 114 Highway.node[1].prot noOfRetransmissions ETV
vector 115 Highway.node[2].prot firstDENMDelay ETV
vector 116 Highway.node[2].prot noOfRetransmissions ETV
vector 117 Highway.node[3].prot firstDENMDelay ETV
vector 118 Highway.node[3].prot noOfRetransmissions ETV
vector 119 Highway.node[4].prot firstDENMDelay ETV
vector 120 Highway.node[4].prot noOfRetransmissions ETV
vector 121 Highway.node[5].prot firstDENMDelay ETV
vector 122 Highway.node[5].prot noOfRetransmissions ETV
vector 123 Highway.node[6].prot firstDENMDelay ETV
vector 124 Highway.node[6].prot noOfRetransmissions ETV
vector 125 Highway.node[0].prot firstDENMDelay ETV
vector 126 Highway.node[0].prot noOfRetransmissions ETV
4	231	1.11	-0.00218518
4	664	1.21	-0.00213419
4	1098	1.31	-0.00205408
4	1531	1.41	-0.00195152
4	1955	1.51	-0.00183238
4	2388	1.61	-0.00170178
4	2822	1.71	-0.00156412
4	3256	1.81	-0.00142314
4	3680	1.91	-0.00128196
4	4121	2.01	-0.00114315
4	4545	2.11	-0.00100877
4	4975	2.21	-0.000880447
4	5408	2.31	-0.000759381
4	5838	2.41	-0.000646445
4	6268	2.51	-0.000542204
4	6701	2.61	-0.000446965
4	7125	2.71	-0.000360819
4	7558	2.81	-0.000283678
4	7976	2.91	-0.000215307
4	8410	3.01	-0.000155357
4	8828	3.11	-0.000103391
4	9249	3.21	-5.89069e-05
4	9673	3.31	-2.13575e-05
4	10106	3.41	9.82919e-06
4	10539	3.51	3.52368e-05
4	10972	3.61	5.54479e-05
4	11396	3.71	7.10335e-05
4	11829	3.81	8.25451e-05
4	12247	3.91	9.05081e-05
4	12681	4.01	9.54172e-05
4	13102	4.11	9.7733e-05
4	13535	4.21	9.78798e-05
4	13968	4.31	9.62447e-05
4	14398	4.41	9.31771e-05
4	14822	4.51	8.89894e-05
4	15240	4.61	8.39579e-05
4	15673	4.71	7.83245e-05
4	16106	4.81	7.22983e-05
4	16539	4.91	6.6058e-05
4	16967	5.01	5.9754e-05
4	17394	5.11	5.35107e-05
4	17827	5.21	4.74294e-05
4	18257	5.31	4.15898e-05
4	18690	5.41	3.60534e-05
4	19114	5.51	3.0865e-05
4	19541	5.61	2.60551e-05
4	19968	5.71	2.16419e-05
4	20395	5.81	1.76335e-05
4	20828	5.91	1.40289e-05
4	21262	6.01	1.08202e-05
4	21692	6.11	7.99392e-06
4	22125	6.21	5.532e-06
4	22555	6.31	3.41315e-06
4	22979	6.41	1.61374e-06
4	23409	6.51	1.08654e-07
4	23842	6.61	-1.12799e-06
4	24269	6.71	-2.12224e-06
4	24702	6.81	-2.89981e-06
4	25123	6.91	-3.48567e-06
4	25560	7.01	-3.90376e-06
4	25990	7.11	-4.17673e-06
4	26417	7.21	-4.32574e-06
4	26850	7.31	-4.3704e-06
4	27283	7.41	-4.32865e-06
4	27713	7.51	-4.21676e-06
4	28143	7.61	-4.04934e-06
4	28576	7.71	-3.83937e-06
4	29006	7.81	-3.59826e-06
4	29439	7.91	-3.33592e-06
4	29879	8.01	-3.06089e-06
4	30309	8.11	-2.78036e-06
4	30739	8.21	-2.50036e-06
4	31172	8.31	-2.22582e-06
4	31605	8.41	-1.96068e-06
4	32026	8.51	-1.708e-06
4	32459	8.61	-1.47009e-06
4	32892	8.71	-1.24855e-06
4	33313	8.81	-1.04441e-06
4	33746	8.91	-8.58219e-07
4	34180	9.01	-6.90082e-07
4	34613	9.11	-5.39774e-07
4	35046	9.21	-4.06787e-07
4	35476	9.31	-2.90396e-07
4	35909	9.41	-1.89707e-07
4	36342	9.51	-1.03704e-07
4	36772	9.61	-3.12909e-08
4	37205	9.71	2.86736e-08
4	37635	9.81	7.73515e-08
4	38068	9.91	1.15897e-07
4	38505	10.01	1.45439e-07
4	38935	10.11	1.67065e-07
4	39365	10.21	1.81809e-07
4	39798	10.31	1.90644e-07
4	40225	10.41	1.94472e-07
4	40658	10.51	1.94125e-07
4	41079	10.61	1.90358e-07
4	41509	10.71	1.83853e-07
4	41933	10.81	1.75219e-07
4	42360	10.91	1.64994e-07
4	42791	11.01	1.53647e-07
4	43224	11.11	1.41582e-07
4	43651	11.21	1.29146e-07
4	44084	11.31	1.16627e-07
4	44514	11.41	1.04266e-07
4	44938	11.51	9.22547e-08
4	45365	11.61	8.07471e-08
4	45798	11.71	6.98584e-08
4	46219	11.81	5.96732e-08
4	46649	11.91	5.02471e-08
4	47086	12.01	4.16133e-08
4	47513	12.11	3.37845e-08
4	47934	12.21	2.67558e-08
4	48367	12.31	2.05102e-08
4	48800	12.41	1.50187e-08
4	49233	12.51	1.02442e-08
4	49660	12.61	6.14406e-09
4	50084	12.71	2.67022e-09
4	50508	12.81	-2.27374e-10
4	50941	12.91	-2.60059e-09
4	51363	13.01	-4.50058e-09
4	51781	13.11	-5.97851e-09
4	52208	13.21	-7.08376e-09
4	52638	13.31	-7.86322e-09
4	53062	13.41	-8.36167e-09
4	53495	13.51	-8.62066e-09
4	53916	13.61	-8.67857e-09
4	54346	13.71	-8.57057e-09
4	54779	13.81	-8.32792e-09
4	55212	13.91	-7.97975e-09
4	55652	14.01	-7.55058e-09
4	56079	14.11	-7.06351e-09
4	56512	14.21	-6.53699e-09
4	56939	14.31	-5.98774e-09
4	57372	14.41	-5.42997e-09
4	57805	14.51	-4.87468e-09
4	58238	14.61	-4.33182e-09
4	58671	14.71	-3.80886e-09
4	59101	14.81	-3.31148e-09
4	59531	14.91	-2.84395e-09
4	59962	15.01	-2.40981e-09
4	60395	15.11	-2.01013e-09
4	60828	15.21	-1.64633e-09
4	61258	15.31	-1.31806e-09
4	61682	15.41	-1.02531e-09
4	62109	15.51	-7.66676e-10
4	62539	15.61	-5.40723e-10
4	62969	15.71	-3.46034e-10
4	63393	15.81	-1.79767e-10
4	63826	15.91	-4.01457e-11
4	64263	16.01	7.49623e-11
4	64696	16.11	1.68043e-10
4	65126	16.21	2.41585e-10
4	65559	16.31	2.97362e-10
4	65989	16.41	3.37863e-10
4	66422	16.51	3.64864e-10
4	66855	16.61	3.80851e-10
4	67288	16.71	3.86891e-10
4	67709	16.81	3.84759e-10
4	68133	16.91	3.76232e-10
4	68570	17.01	3.62377e-10
4	69000	17.11	3.44613e-10
4	69430	17.21	3.24007e-10
4	69863	17.31	3.00915e-10
4	70296	17.41	2.76756e-10
4	70729	17.51	2.52243e-10
4	71162	17.61	2.27374e-10
4	71595	17.71	2.0286e-10
4	72019	17.81	1.79057e-10
4	72452	17.91	1.56319e-10
4	72880	18.01	1.35003e-10
4	73310	18.11	1.15108e-10
4	73737	18.21	9.66338e-11
4	74170	18.31	7.99361e-11
4	74588	18.41	6.46594e-11
4	75021	18.51	5.08038e-11
4	75451	18.61	3.83693e-11
4	75884	18.71	2.73559e-11
4	76317	18.81	1.77636e-11
4	76741	18.91	9.59233e-12
4	77181	19.01	2.84217e-12
4	77614	19.11	-2.84217e-12
4	78041	19.21	-7.4607e-12
4	78471	19.31	-1.13687e-11
4	78904	19.41	-1.42109e-11
4	79334	19.51	-1.63425e-11
4	79767	19.61	-1.77636e-11
4	80191	19.71	-1.84741e-11
4	80624	19.81	-1.88294e-11
4	81057	19.91	-1.88294e-11
4	81497	20.01	-1.88294e-11
4	81924	20.11	-1.81188e-11
4	82357	20.21	-1.7053e-11
4	82787	20.31	-1.63425e-11
4	83196	20.41	-1.52767e-11
4	83623	20.51	-1.45661e-11
4	84053	20.61	-1.35003e-11
4	84486	20.71	-1.27898e-11
4	84913	20.81	-1.1724e-11
4	85334	20.91	-1.10134e-11
4	85771	21.01	-9.9476e-12
4	86192	21.11	-9.23706e-12
4	86625	21.21	-8.17124e-12
4	87055	21.31	-7.4607e-12
4	87488	21.41	-6.39488e-12
4	87918	21.51	-5.68434e-12
4	88345	21.61	-4.61853e-12
4	88769	21.71	-3.90799e-12
4	89196	21.81	-2.84217e-12
4	89623	21.91	-2.13163e-12
4	90054	22.01	-1.06581e-12
4	90478	22.11	-3.55271e-13
4	90911	22.21	7.10543e-13
4	91338	22.31	1.42109e-12
4	91765	22.41	2.13163e-12
4	92198	22.51	2.84217e-12
4	92625	22.61	3.19744e-12
4	93058	22.71	3.90799e-12
4	93476	22.81	4.26326e-12
4	93909	22.91	4.61853e-12
4	94331	23.01	5.32907e-12
4	94764	23.11	5.68434e-12
4	95197	23.21	5.68434e-12
4	95630	23.31	6.03961e-12
4	96057	23.41	6.39488e-12
4	96490	23.51	6.75016e-12
4	96923	23.61	6.75016e-12
4	97350	23.71	7.10543e-12
4	97780	23.81	7.10543e-12
4	98201	23.91	7.4607e-12
4	98641	24.01	7.4607e-12
4	99062	24.11	7.81597e-12
4	99477	24.21	7.81597e-12
4	99910	24.31	7.81597e-12
4	100343	24.41	7.81597e-12
4	100767	24.51	8.17124e-12
4	101191	24.61	8.17124e-12
4	101615	24.71	8.17124e-12
4	102045	24.81	8.17124e-12
4	102475	24.91	8.17124e-12
4	102903	25.01	8.52651e-12
4	103336	25.11	8.52651e-12
4	103757	25.21	8.52651e-12
4	104181	25.31	8.52651e-12
4	104590	25.41	8.52651e-12
4	105017	25.51	8.52651e-12
4	105450	25.61	8.52651e-12
4	105883	25.71	8.52651e-12
4	106316	25.81	8.52651e-12
4	106749	25.91	8.52651e-12
4	107186	26.01	8.88178e-12
4	107610	26.11	8.88178e-12
4	108034	26.21	8.88178e-12
4	108467	26.31	8.88178e-12
4	108900	26.41	8.88178e-12
4	109330	26.51	8.88178e-12
4	109751	26.61	8.88178e-12
4	110184	26.71	8.88178e-12
4	110602	26.81	8.88178e-12
4	111032	26.91	8.88178e-12
4	111466	27.01	8.88178e-12
4	111899	27.11	8.88178e-12
4	112332	27.21	8.88178e-12
4	112759	27.31	8.88178e-12
4	113180	27.41	8.88178e-12
4	113607	27.51	8.88178e-12
4	114040	27.61	8.88178e-12
4	114473	27.71	8.88178e-12
4	114897	27.81	8.88178e-12
4	115321	27.91	8.88178e-12
4	115755	28.01	8.88178e-12
4	116182	28.11	8.88178e-12
4	116615	28.21	8.88178e-12
4	117048	28.31	8.88178e-12
4	117481	28.41	8.88178e-12
4	117914	28.51	8.88178e-12
4	118341	28.61	8.88178e-12
4	118768	28.71	8.88178e-12
4	119198	28.81	8.88178e-12
4	119631	28.91	8.88178e-12
4	120071	29.01	8.88178e-12
4	120504	29.11	8.88178e-12
4	120925	29.21	8.88178e-12
4	121352	29.31	8.88178e-12
4	121785	29.41	8.88178e-12
4	122212	29.51	8.88178e-12
4	122633	29.61	8.88178e-12
4	123066	29.71	8.88178e-12
4	123499	29.81	8.88178e-12
4	123926	29.91	8.88178e-12
4	124366	30.01	8.88178e-12
4	124799	30.11	8.88178e-12
4	125226	30.21	8.88178e-12
4	125644	30.31	8.88178e-12
4	126077	30.41	8.88178e-12
4	126504	30.51	8.88178e-12
4	126937	30.61	8.88178e-12
4	127367	30.71	8.88178e-12
4	127800	30.81	8.88178e-12
4	128227	30.91	8.88178e-12
4	128661	31.01	8.88178e-12
4	129091	31.11	8.88178e-12
4	129524	31.21	8.88178e-12
4	129948	31.31	8.88178e-12
4	130369	31.41	8.88178e-12
4	130802	31.51	8.88178e-12
4	131220	31.61	8.88178e-12
4	131653	31.71	8.88178e-12
4	132086	31.81	8.88178e-12
4	132516	31.91	8.88178e-12
4	132950	32.01	8.88178e-12
4	133383	32.11	8.88178e-12
4	133807	32.21	8.88178e-12
4	134234	32.31	8.88178e-12
4	134664	32.41	8.88178e-12
4	135094	32.51	8.88178e-12
4	135527	32.61	8.88178e-12
4	135939	32.71	8.88178e-12
4	136366	32.81	8.88178e-12
4	136799	32.91	8.88178e-12
4	137239	33.01	8.88178e-12
4	137669	33.11	8.88178e-12
4	138096	33.21	8.88178e-12
4	138526	33.31	8.88178e-12
4	138959	33.41	8.88178e-12
4	139389	33.51	8.88178e-12
4	139813	33.61	8.88178e-12
4	140240	33.71	8.88178e-12
4	140673	33.81	8.88178e-12
4	141088	33.91	8.88178e-12
4	141522	34.01	8.88178e-12
4	141949	34.11	8.88178e-12
4	142364	34.21	8.88178e-12
4	142785	34.31	8.88178e-12
4	143212	34.41	8.88178e-12
4	143624	34.51	8.88178e-12
4	144045	34.61	8.88178e-12
4	144478	34.71	8.88178e-12
4	144896	34.81	8.88178e-12
4	145326	34.91	8.88178e-12
4	145754	35.01	8.88178e-12
4	146184	35.11	8.88178e-12
4	146617	35.21	8.88178e-12
4	147047	35.31	8.88178e-12
4	147468	35.41	8.88178e-12
4	147895	35.51	8.88178e-12
4	148325	35.61	8.88178e-12
4	148740	35.71	8.88178e-12
4	149173	35.81	8.88178e-12
4	149600	35.91	8.88178e-12
4	150037	36.01	8.88178e-12
4	150467	36.11	8.88178e-12
4	150897	36.21	8.88178e-12
4	151330	36.31	8.88178e-12
4	151763	36.41	8.88178e-12
4	152196	36.51	8.88178e-12
4	152617	36.61	8.88178e-12
4	153038	36.71	8.88178e-12
4	153465	36.81	8.88178e-12
4	153895	36.91	8.88178e-12
4	154320	37.01	8.88178e-12
4	154753	37.11	8.88178e-12
4	155183	37.21	8.88178e-12
4	155610	37.31	8.88178e-12
4	156037	37.41	8.88178e-12
4	156470	37.51	8.88178e-12
4	156897	37.61	8.88178e-12
4	157330	37.71	8.88178e-12
4	157754	37.81	8.88178e-12
4	158184	37.91	8.88178e-12
4	158618	38.01	8.88178e-12
4	159051	38.11	8.88178e-12
4	159472	38.21	8.88178e-12
4	159905	38.31	8.88178e-12
4	160329	38.41	8.88178e-12
4	160759	38.51	8.88178e-12
4	161192	38.61	8.88178e-12
4	161625	38.71	8.88178e-12
4	162058	38.81	8.88178e-12
4	162488	38.91	8.88178e-12
4	162928	39.01	8.88178e-12
4	163349	39.11	8.88178e-12
4	163770	39.21	8.88178e-12
4	164182	39.31	8.88178e-12
4	164615	39.41	8.88178e-12
4	165048	39.51	8.88178e-12
4	165481	39.61	8.88178e-12
4	165914	39.71	8.88178e-12
4	166344	39.81	8.88178e-12
4	166771	39.91	8.88178e-12
4	167208	40.01	8.88178e-12
4	167641	40.11	8.88178e-12
4	168074	40.21	8.88178e-12
4	168507	40.31	8.88178e-12
4	168940	40.41	8.88178e-12
4	169373	40.51	8.88178e-12
4	169800	40.61	8.88178e-12
4	170227	40.71	8.88178e-12
4	170651	40.81	8.88178e-12
4	171084	40.91	8.88178e-12
4	171521	41.01	8.88178e-12
4	171945	41.11	8.88178e-12
4	172378	41.21	8.88178e-12
4	172811	41.31	8.88178e-12
4	173244	41.41	8.88178e-12
4	173677	41.51	8.88178e-12
4	174104	41.61	8.88178e-12
4	174534	41.71	8.88178e-12
4	174964	41.81	8.88178e-12
4	175394	41.91	8.88178e-12
4	175834	42.01	8.88178e-12
4	176249	42.11	8.88178e-12
4	176676	42.21	8.88178e-12
4	177097	42.31	8.88178e-12
4	177530	42.41	8.88178e-12
4	177960	42.51	8.88178e-12
4	178390	42.61	8.88178e-12
4	178817	42.71	8.88178e-12
4	179250	42.81	8.88178e-12
4	179668	42.91	8.88178e-12
4	180102	43.01	8.88178e-12
4	180526	43.11	8.88178e-12
4	180944	43.21	8.88178e-12
4	181371	43.31	8.88178e-12
4	181804	43.41	8.88178e-12
4	182237	43.51	8.88178e-12
4	182670	43.61	8.88178e-12
4	183103	43.71	8.88178e-12
4	183527	43.81	8.88178e-12
4	183951	43.91	8.88178e-12
4	184382	44.01	8.88178e-12
4	184815	44.11	8.88178e-12
4	185239	44.21	8.88178e-12
4	185669	44.31	8.88178e-12
4	186099	44.41	8.88178e-12
4	186532	44.51	8.88178e-12
4	186950	44.61	8.88178e-12
4	187374	44.71	8.88178e-12
4	187795	44.81	8.88178e-12
4	188216	44.91	8.88178e-12
4	188656	45.01	8.88178e-12
4	189077	45.11	8.88178e-12
4	189504	45.21	8.88178e-12
4	189931	45.31	8.88178e-12
4	190361	45.41	8.88178e-12
4	190794	45.51	8.88178e-12
4	191227	45.61	8.88178e-12
4	191660	45.71	8.88178e-12
4	192078	45.81	8.88178e-12
4	192508	45.91	8.88178e-12
4	192936	46.01	8.88178e-12
4	193354	46.11	8.88178e-12
4	193784	46.21	8.88178e-12
4	194217	46.31	8.88178e-12
4	194647	46.41	8.88178e-12
4	195080	46.51	8.88178e-12
4	195501	46.61	8.88178e-12
4	195928	46.71	8.88178e-12
4	196358	46.81	8.88178e-12
4	196788	46.91	8.88178e-12
4	197222	47.01	8.88178e-12
4	197643	47.11	8.88178e-12
4	198076	47.21	8.88178e-12
4	198509	47.31	8.88178e-12
4	198939	47.41	8.88178e-12
4	199351	47.51	8.88178e-12
4	199784	47.61	8.88178e-12
4	200208	47.71	8.88178e-12
4	200641	47.81	8.88178e-12
4	201074	47.91	8.88178e-12
4	201514	48.01	8.88178e-12
4	201947	48.11	8.88178e-12
4	202380	48.21	8.88178e-12
4	202813	48.31	8.88178e-12
4	203240	48.41	8.88178e-12
4	203673	48.51	8.88178e-12
4	204100	48.61	8.88178e-12
4	204521	48.71	8.88178e-12
4	204954	48.81	8.88178e-12
4	205378	48.91	8.88178e-12
4	205809	49.01	8.88178e-12
4	206242	49.11	8.88178e-12
4	206672	49.21	8.88178e-12
4	207105	49.31	8.88178e-12
4	207529	49.41	8.88178e-12
4	207956	49.51	8.88178e-12
4	208371	49.61	8.88178e-12
4	208804	49.71	8.88178e-12
4	209225	49.81	8.88178e-12
4	209652	49.91	8.88178e-12
4	210087	50.01	8.88178e-12
4	1721769	50.11	8.88178e-12
4	3318308	50.21	8.88178e-12
4	4899461	50.31	8.88178e-12
4	6475789	50.41	8.88178e-12
4	8057374	50.51	8.88178e-12
4	9640235	50.61	8.88178e-12
4	11212331	50.71	8.88178e-12
4	12813166	50.81	8.88178e-12
4	14385730	50.91	8.88178e-12
4	15977895	51.01	8.88178e-12
4	17556275	51.11	8.88178e-12
4	19139346	51.21	8.88178e-12
4	20731410	51.31	8.88178e-12
4	22319763	51.41	8.88178e-12
4	23889162	51.51	8.88178e-12
4	25472783	51.61	8.88178e-12
4	27057584	51.71	8.88178e-12
4	28647203	51.81	8.88178e-12
4	30217624	51.91	8.88178e-12
4	31802542	52.01	8.88178e-12
4	33390334	52.11	8.88178e-12
4	34975703	52.21	8.88178e-12
4	36556766	52.31	8.88178e-12
4	38133727	52.41	8.88178e-12
4	39722590	52.51	8.88178e-12
4	41312267	52.61	8.88178e-12
4	42893472	52.71	8.88178e-12
4	44475537	52.81	8.88178e-12
4	46052478	52.91	8.88178e-12
4	47644447	53.01	8.88178e-12
4	49207837	53.11	8.88178e-12
4	50809312	53.21	8.88178e-12
4	52389887	53.31	8.88178e-12
4	53956659	53.41	8.88178e-12
4	55517907	53.51	8.88178e-12
4	57121865	53.61	8.88178e-12
4	58698097	53.71	8.88178e-12
4	60285812	53.81	8.88178e-12
4	61882615	53.91	8.88178e-12
4	63453267	54.01	8.88178e-12
4	65034494	54.11	8.88178e-12
4	66619493	54.21	8.88178e-12
4	68194682	54.31	8.88178e-12
4	69784499	54.41	8.88178e-12
4	71368218	54.51	8.88178e-12
4	72941878	54.61	8.88178e-12
4	74515058	54.71	8.88178e-12
4	76104463	54.81	8.88178e-12
4	77684440	54.91	8.88178e-12
4	79272012	55.01	8.88178e-12
4	80855484	55.11	8.88178e-12
4	82439626	55.21	8.88178e-12
4	84020963	55.31	8.88178e-12
4	85600455	55.41	8.88178e-12
4	87178213	55.51	8.88178e-12
4	88765052	55.61	8.88178e-12
4	90351873	55.71	8.88178e-12
4	91934451	55.81	8.88178e-12
4	93516480	55.91	8.88178e-12
4	95099263	56.01	8.88178e-12
4	96681484	56.11	8.88178e-12
4	98268760	56.21	8.88178e-12
4	99846172	56.31	8.88178e-12
4	101430347	56.41	8.88178e-12
4	103017908	56.51	8.88178e-12
4	104600315	56.61	8.88178e-12
4	106190183	56.71	8.88178e-12
4	107775158	56.81	8.88178e-12
4	109356276	56.91	8.88178e-12
4	110938107	57.01	8.88178e-12
4	112510875	57.11	8.88178e-12
4	114097823	57.21	8.88178e-12
4	115669243	57.31	8.88178e-12
4	117260488	57.41	8.88178e-12
4	118833684	57.51	8.88178e-12
4	120425755	57.61	8.88178e-12
4	121987619	57.71	8.88178e-12
4	123570552	57.81	8.88178e-12
4	125172509	57.91	8.88178e-12
4	126757027	58.01	8.88178e-12
4	128326472	58.11	8.88178e-12
4	129923435	58.21	8.88178e-12
4	131490469	58.31	8.88178e-12
4	133080026	58.41	8.88178e-12
4	134662340	58.51	8.88178e-12
4	136246434	58.61	8.88178e-12
4	137832979	58.71	8.88178e-12
4	139417572	58.81	8.88178e-12
4	141000307	58.91	8.88178e-12
4	142578299	59.01	8.88178e-12
4	144167033	59.11	8.88178e-12
4	145746255	59.21	8.88178e-12
4	147334778	59.31	8.88178e-12
4	148910459	59.41	8.88178e-12
4	150499019	59.51	8.88178e-12
4	152079744	59.61	8.88178e-12
4	153650397	59.71	8.88178e-12
4	155250125	59.81	8.88178e-12
4	156838464	59.91	8.88178e-12
4	158416160	60.01	-8
4	159997206	60.11	-8
4	161579779	60.21	-8
4	163167503	60.31	-8
4	164752454	60.41	-8
4	166337102	60.51	-8
4	167913058	60.61	-8
4	169503088	60.71	-8
4	171067462	60.81	-8
4	172659099	60.91	-8
4	174255039	61.01	-8
4	175828033	61.11	-8
4	177406594	61.21	-8
4	178996535	61.31	-8
4	180578953	61.41	-8
4	182151133	61.51	-8
4	183754563	61.61	-8
4	185329150	61.71	-8
4	186904227	61.81	-8
4	188501634	61.91	-8
4	190091310	62.01	-8
4	191672783	62.11	-8
4	193250059	62.21	-8
4	194833594	62.31	-8
4	196415181	62.41	-8
4	198005357	62.51	-8
4	199582997	62.61	-8
4	201170386	62.71	-8
4	202750348	62.81	-8
4	204323884	62.91	-8
4	205918065	63.01	-8
4	207490621	63.11	-8
4	209088387	63.21	-8
4	210668307	63.31	-8
4	212244493	63.41	-8
4	213834795	63.51	-8
4	215421506	63.61	-8
4	217004031	63.71	-8
4	218584622	63.81	-8
4	220169642	63.91	-8
4	221761729	64.01	0
4	223346462	64.11	0
4	224913687	64.21	0
4	226503616	64.31	0
4	228088755	64.41	0
4	229669534	64.51	0
4	231264452	64.61	0
4	232829994	64.71	0
4	234416605	64.81	0
4	236000001	64.91	0
4	237590139	65.01	0
4	239168479	65.11	0
4	240750234	65.21	0
4	242339130	65.31	0
4	243901924	65.41	0
4	245490250	65.51	0
4	247076371	65.61	0
4	248652571	65.71	0
4	250242581	65.81	0
4	251829714	65.91	0
4	253398911	66.01	0
4	254993289	66.11	0
4	256567924	66.21	0
4	258163851	66.31	0
4	259744703	66.41	0
4	261328274	66.51	0
4	262907106	66.61	0
4	264501261	66.71	0
4	266060916	66.81	0
4	267670823	66.91	0
4	269258722	67.01	0
4	270828482	67.11	0
4	272421594	67.21	0
4	274002117	67.31	0
4	275580461	67.41	0
4	277157127	67.51	0
4	278744242	67.61	0
4	280317738	67.71	0
4	281909778	67.81	0
4	283482673	67.91	0
4	285073432	68.01	0
4	286659531	68.11	0
4	288237273	68.21	0
4	289820772	68.31	0
4	291403914	68.41	0
4	292981421	68.51	0
4	294556276	68.61	0
4	296147899	68.71	0
4	297725070	68.81	0
4	299294496	68.91	0
4	300889370	69.01	0
4	302468597	69.11	0
4	304052273	69.21	0
4	305646765	69.31	0
4	307221105	69.41	0
4	308800435	69.51	0
4	310378109	69.61	0
4	311962829	69.71	0
4	313549826	69.81	0
4	315108416	69.91	0
3	231	1.11	-0.000358191
3	664	1.21	-0.000681704
3	1098	1.31	-0.00093487
3	1531	1.41	-0.00112579
3	1955	1.51	-0.00126221
3	2388	1.61	-0.00135149
3	2822	1.71	-0.00140049
3	3256	1.81	-0.00141557
3	3680	1.91	-0.00140255
3	4121	2.01	-0.00136671
3	4545	2.11	-0.0013128
3	4975	2.21	-0.00124502
3	5408	2.31	-0.0011671
3	5838	2.41	-0.00108223
3	6268	2.51	-0.000993208
3	6701	2.61	-0.000902362
3	7125	2.71	-0.000811651
3	7558	2.81	-0.000722679
3	7976	2.91	-0.000636729
3	8410	3.01	-0.0005548
3	8828	3.11	-0.000477639
3	9249	3.21	-0.000405773
3	9673	3.31	-0.00033954
3	10106	3.41	-0.000279116
3	10539	3.51	-0.000224541
3	10972	3.61	-0.000175743
3	11396	3.71	-0.00013256
3	11829	3.81	-9.47571e-05
3	12247	3.91	-6.2046e-05
3	12681	4.01	-3.40986e-05
3	13102	4.11	-1.05605e-05
3	13535	4.21	8.93844e-06
3	13968	4.31	2.4774e-05
3	14398	4.41	3.73203e-05
3	14822	4.51	4.69433e-05
3	15240	4.61	5.39956e-05
3	15673	4.71	5.88124e-05
3	16106	4.81	6.1709e-05
3	16539	4.91	6.29785e-05
3	16967	5.01	6.28903e-05
3	17394	5.11	6.169e-05
3	17827	5.21	5.95988e-05
3	18257	5.31	5.68144e-05
3	18690	5.41	5.35112e-05
3	19114	5.51	4.98416e-05
3	19541	5.61	4.59373e-05
3	19968	5.71	4.19105e-05
3	20395	5.81	3.78555e-05
3	20828	5.91	3.38499e-05
3	21262	6.01	2.99569e-05
3	21692	6.11	2.62259e-05
3	22125	6.21	2.26948e-05
3	22555	6.31	1.93911e-05
3	22979	6.41	1.6333e-05
3	23409	6.51	1.35314e-05
3	23842	6.61	1.09904e-05
3	24269	6.71	8.70882e-06
3	24702	6.81	6.6809e-06
3	25123	6.91	4.89747e-06
3	25560	7.01	3.3466e-06
3	25990	7.11	2.01432e-06
3	26417	7.21	8.85256e-07
3	26850	7.31	-5.68459e-08
3	27283	7.41	-8.28678e-07
3	27713	7.51	-1.44699e-06
3	28143	7.61	-1.92826e-06
3	28576	7.71	-2.28849e-06
3	29006	7.81	-2.54296e-06
3	29439	7.91	-2.7061e-06
3	29879	8.01	-2.79139e-06
3	30309	8.11	-2.8113e-06
3	30739	8.21	-2.77721e-06
3	31172	8.31	-2.69943e-06
3	31605	8.41	-2.58721e-06
3	32026	8.51	-2.44874e-06
3	32459	8.61	-2.29123e-06
3	32892	8.71	-2.12092e-06
3	33313	8.81	-1.94317e-06
3	33746	8.91	-1.7625e-06
3	34180	9.01	-1.58267e-06
3	34613	9.11	-1.40677e-06
3	35046	9.21	-1.23723e-06
3	35476	9.31	-1.07596e-06
3	35909	9.41	-9.24364e-07
3	36342	9.51	-7.83424e-07
3	36772	9.61	-6.53753e-07
3	37205	9.71	-5.35652e-07
3	37635	9.81	-4.2916e-07
3	38068	9.91	-3.34103e-07
3	38505	10.01	-2.5013e-07
3	38935	10.11	-1.76757e-07
3	39365	10.21	-1.13395e-07
3	39798	10.31	-5.93825e-08
3	40225	10.41	-1.40084e-08
3	40658	10.51	2.34657e-08
3	41079	10.61	5.3787e-08
3	41509	10.71	7.76954e-08
3	41933	10.81	9.59155e-08
3	42360	10.91	1.09142e-07
3	42791	11.01	1.18035e-07
3	43224	11.11	1.23212e-07
3	43651	11.21	1.2525e-07
3	44084	11.31	1.24675e-07
3	44514	11.41	1.21968e-07
3	44938	11.51	1.17559e-07
3	45365	11.61	1.11834e-07
3	45798	11.71	1.05132e-07
3	46219	11.81	9.77476e-08
3	46649	11.91	8.99373e-08
3	47086	12.01	8.19171e-08
3	47513	12.11	7.38677e-08
3	47934	12.21	6.59401e-08
3	48367	12.31	5.82538e-08
3	48800	12.41	5.09036e-08
3	49233	12.51	4.39606e-08
3	49660	12.61	3.74765e-08
3	50084	12.71	3.14852e-08
3	50508	12.81	2.60055e-08
3	50941	12.91	2.10438e-08
3	51363	13.01	1.65958e-08
3	51781	13.11	1.26498e-08
3	52208	13.21	9.18554e-09
3	52638	13.31	6.17888e-09
3	53062	13.41	3.60174e-09
3	53495	13.51	1.42322e-09
3	53916	13.61	-3.90088e-10
3	54346	13.71	-1.8705e-09
3	54779	13.81	-3.05107e-09
3	55212	13.91	-3.96518e-09
3	55652	14.01	-4.64375e-09
3	56079	14.11	-5.11768e-09
3	56512	14.21	-5.41434e-09
3	56939	14.31	-5.56071e-09
3	57372	14.41	-5.58096e-09
3	57805	14.51	-5.49747e-09
3	58238	14.61	-5.33085e-09
3	58671	14.71	-5.09743e-09
3	59101	14.81	-4.81464e-09
3	59531	14.91	-4.49667e-09
3	59962	15.01	-4.15525e-09
3	60395	15.11	-3.80034e-09
3	60828	15.21	-3.44151e-09
3	61258	15.31	-3.08518e-09
3	61682	15.41	-2.73772e-09
3	62109	15.51	-2.40306e-09
3	62539	15.61	-2.08544e-09
3	62969	15.71	-1.78773e-09
3	63393	15.81	-1.51132e-09
3	63826	15.91	-1.25766e-09
3	64263	16.01	-1.02673e-09
3	64696	16.11	-8.18901e-10
3	65126	16.21	-6.33804e-10
3	65559	16.31	-4.70735e-10
3	65989	16.41	-3.28271e-10
3	66422	16.51	-2.05702e-10
3	66855	16.61	-1.00897e-10
3	67288	16.71	-1.35003e-11
3	67709	16.81	5.82645e-11
3	68133	16.91	1.16174e-10
3	68570	17.01	1.61648e-10
3	69000	17.11	1.95755e-10
3	69430	17.21	2.20624e-10
3	69863	17.31	2.36966e-10
3	70296	17.41	2.45848e-10
3	70729	17.51	2.4869e-10
3	71162	17.61	2.46914e-10
3	71595	17.71	2.40874e-10
3	72019	17.81	2.31282e-10
3	72452	17.91	2.19913e-10
3	72880	18.01	2.05702e-10
3	73310	18.11	1.91491e-10
3	73737	18.21	1.7657e-10
3	74170	18.31	1.59872e-10
3	74588	18.41	1.44595e-10
3	75021	18.51	1.30385e-10
3	75451	18.61	1.16174e-10
3	75884	18.71	1.01963e-10
3	76317	18.81	8.7752e-11
3	76741	18.91	7.35412e-11
3	77181	19.01	6.21725e-11
3	77614	19.11	5.15143e-11
3	78041	19.21	4.08562e-11
3	78471	19.31	3.16192e-11
3	78904	19.41	2.45137e-11
3	79334	19.51	1.74083e-11
3	79767	19.61	1.03029e-11
3	80191	19.71	6.03961e-12
3	80624	19.81	2.4869e-12
3	81057	19.91	-1.06581e-12
3	81497	20.01	-4.61853e-12
3	81924	20.11	-8.17124e-12
3	82357	20.21	-8.88178e-12
3	82787	20.31	-8.88178e-12
3	83196	20.41	-8.88178e-12
3	83623	20.51	-8.88178e-12
3	84053	20.61	-8.88178e-12
3	84486	20.71	-8.88178e-12
3	84913	20.81	-8.88178e-12
3	85334	20.91	-8.88178e-12
3	85771	21.01	-8.88178e-12
3	86192	21.11	-8.88178e-12
3	86625	21.21	-8.88178e-12
3	87055	21.31	-8.88178e-12
3	87488	21.41	-8.88178e-12
3	87918	21.51	-8.88178e-12
3	88345	21.61	-8.88178e-12
3	88769	21.71	-8.88178e-12
3	89196	21.81	-8.88178e-12
3	89623	21.91	-8.88178e-12
3	90054	22.01	-8.88178e-12
3	90478	22.11	-8.88178e-12
3	90911	22.21	-8.17124e-12
3	91338	22.31	-7.4607e-12
3	91765	22.41	-6.75016e-12
3	92198	22.51	-6.03961e-12
3	92625	22.61	-5.68434e-12
3	93058	22.71	-4.9738e-12
3	93476	22.81	-4.61853e-12
3	93909	22.91	-4.26326e-12
3	94331	23.01	-3.55271e-12
3	94764	23.11	-3.19744e-12
3	95197	23.21	-3.19744e-12
3	95630	23.31	-2.84217e-12
3	96057	23.41	-2.4869e-12
3	96490	23.51	-2.13163e-12
3	96923	23.61	-2.13163e-12
3	97350	23.71	-1.77636e-12
3	97780	23.81	-1.77636e-12
3	98201	23.91	-1.42109e-12
3	98641	24.01	-1.42109e-12
3	99062	24.11	-1.06581e-12
3	99477	24.21	-1.06581e-12
3	99910	24.31	-1.06581e-12
3	100343	24.41	-1.06581e-12
3	100767	24.51	-7.10543e-13
3	101191	24.61	-7.10543e-13
3	101615	24.71	-7.10543e-13
3	102045	24.81	-7.10543e-13
3	102475	24.91	-7.10543e-13
3	102903	25.01	-3.55271e-13
3	103336	25.11	-3.55271e-13
3	103757	25.21	-3.55271e-13
3	104181	25.31	-3.55271e-13
3	104590	25.41	-3.55271e-13
3	105017	25.51	-3.55271e-13
3	105450	25.61	-3.55271e-13
3	105883	25.71	-3.55271e-13
3	106316	25.81	-3.55271e-13
3	106749	25.91	-3.55271e-13
3	107186	26.01	0
3	107610	26.11	0
3	108034	26.21	0
3	108467	26.31	0
3	108900	26.41	0
3	109330	26.51	0
3	109751	26.61	0
3	110184	26.71	0
3	110602	26.81	0
3	111032	26.91	0
3	111466	27.01	0
3	111899	27.11	0
3	112332	27.21	0
3	112759	27.31	0
3	113180	27.41	0
3	113607	27.51	0
3	114040	27.61	0
3	114473	27.71	0
3	114897	27.81	0
3	115321	27.91	0
3	115755	28.01	0
3	116182	28.11	0
3	116615	28.21	0
3	117048	28.31	0
3	117481	28.41	0
3	117914	28.51	0
3	118341	28.61	0
3	118768	28.71	0
3	119198	28.81	0
3	119631	28.91	0
3	120071	29.01	0
3	120504	29.11	0
3	120925	29.21	0
3	121352	29.31	0
3	121785	29.41	0
3	122212	29.51	0
3	122633	29.61	0
3	123066	29.71	0
3	123499	29.81	0
3	123926	29.91	0
3	124366	30.01	0
3	124799	30.11	0
3	125226	30.21	0
3	125644	30.31	0
3	126077	30.41	0
3	126504	30.51	0
3	126937	30.61	0
3	127367	30.71	0
3	127800	30.81	0
3	128227	30.91	0
3	128661	31.01	0
3	129091	31.11	0
3	129524	31.21	0
3	129948	31.31	0
3	130369	31.41	0
3	130802	31.51	0
3	131220	31.61	0
3	131653	31.71	0
3	132086	31.81	0
3	132516	31.91	0
3	132950	32.01	0
3	133383	32.11	0
3	133807	32.21	0
3	134234	32.31	0
3	134664	32.41	0
3	135094	32.51	0
3	135527	32.61	0
3	135939	32.71	0
3	136366	32.81	0
3	136799	32.91	0
3	137239	33.01	0
3	137669	33.11	0
3	138096	33.21	0
3	138526	33.31	0
3	138959	33.41	0
3	139389	33.51	0
3	139813	33.61	0
3	140240	33.71	0
3	140673	33.81	0
3	141088	33.91	0
3	141522	34.01	0
3	141949	34.11	0
3	142364	34.21	0
3	142785	34.31	0
3	143212	34.41	0
3	143624	34.51	0
3	144045	34.61	0
3	144478	34.71	0
3	144896	34.81	0
3	145326	34.91	0
3	145754	35.01	0
3	146184	35.11	0
3	146617	35.21	0
3	147047	35.31	0
3	147468	35.41	0
3	147895	35.51	0
3	148325	35.61	0
3	148740	35.71	0
3	149173	35.81	0
3	149600	35.91	0
3	150037	36.01	0
3	150467	36.11	0
3	150897	36.21	0
3	151330	36.31	0
3	151763	36.41	0
3	152196	36.51	0
3	152617	36.61	0
3	153038	36.71	0
3	153465	36.81	0
3	153895	36.91	0
3	154320	37.01	0
3	154753	37.11	0
3	155183	37.21	0
3	155610	37.31	0
3	156037	37.41	0
3	156470	37.51	0
3	156897	37.61	0
3	157330	37.71	0
3	157754	37.81	0
3	158184	37.91	0
3	158618	38.01	0
3	159051	38.11	0
3	159472	38.21	0
3	159905	38.31	0
3	160329	38.41	0
3	160759	38.51	0
3	161192	38.61	0
3	161625	38.71	0
3	162058	38.81	0
3	162488	38.91	0
3	162928	39.01	0
3	163349	39.11	0
3	163770	39.21	0
3	164182	39.31	0
3	164615	39.41	0
3	165048	39.51	0
3	165481	39.61	0
3	165914	39.71	0
3	166344	39.81	0
3	166771	39.91	0
3	167208	40.01	0
3	167641	40.11	0
3	168074	40.21	0
3	168507	40.31	0
3	168940	40.41	0
3	169373	40.51	0
3	169800	40.61	0
3	170227	40.71	0
3	170651	40.81	0
3	171084	40.91	0
3	171521	41.01	0
3	171945	41.11	0
3	172378	41.21	0
3	172811	41.31	0
3	173244	41.41	0
3	173677	41.51	0
3	174104	41.61	0
3	174534	41.71	0
3	174964	41.81	0
3	175394	41.91	0
3	175834	42.01	0
3	176249	42.11	0
3	176676	42.21	0
3	177097	42.31	0
3	177530	42.41	0
3	177960	42.51	0
3	178390	42.61	0
3	178817	42.71	0
3	179250	42.81	0
3	179668	42.91	0
3	180102	43.01	0
3	180526	43.11	0
3	180944	43.21	0
3	181371	43.31	0
3	181804	43.41	0
3	182237	43.51	0
3	182670	43.61	0
3	183103	43.71	0
3	183527	43.81	0
3	183951	43.91	0
3	184382	44.01	0
3	184815	44.11	0
3	185239	44.21	0
3	185669	44.31	0
3	186099	44.41	0
3	186532	44.51	0
3	186950	44.61	0
3	187374	44.71	0
3	187795	44.81	0
3	188216	44.91	0
3	188656	45.01	0
3	189077	45.11	0
3	189504	45.21	0
3	189931	45.31	0
3	190361	45.41	0
3	190794	45.51	0
3	191227	45.61	0
3	191660	45.71	0
3	192078	45.81	0
3	192508	45.91	0
3	192936	46.01	0
3	193354	46.11	0
3	193784	46.21	0
3	194217	46.31	0
3	194647	46.41	0
3	195080	46.51	0
3	195501	46.61	0
3	195928	46.71	0
3	196358	46.81	0
3	196788	46.91	0
3	197222	47.01	0
3	197643	47.11	0
3	198076	47.21	0
3	198509	47.31	0
3	198939	47.41	0
3	199351	47.51	0
3	199784	47.61	0
3	200208	47.71	0
3	200641	47.81	0
3	201074	47.91	0
3	201514	48.01	0
3	201947	48.11	0
3	202380	48.21	0
3	202813	48.31	0
3	203240	48.41	0
3	203673	48.51	0
3	204100	48.61	0
3	204521	48.71	0
3	204954	48.81	0
3	205378	48.91	0
3	205809	49.01	0
3	206242	49.11	0
3	206672	49.21	0
3	207105	49.31	0
3	207529	49.41	0
3	207956	49.51	0
3	208371	49.61	0
3	208804	49.71	0
3	209225	49.81	0
3	209652	49.91	0
3	210087	50.01	0
3	1721769	50.11	0
3	3318308	50.21	0
3	4899461	50.31	0
3	6475789	50.41	0
3	8057374	50.51	0
3	9640235	50.61	0
3	11212331	50.71	0
3	12813166	50.81	0
3	14385730	50.91	0
3	15977895	51.01	0
3	17556275	51.11	0
3	19139346	51.21	0
3	20731410	51.31	0
3	22319763	51.41	0
3	23889162	51.51	0
3	25472783	51.61	0
3	27057584	51.71	0
3	28647203	51.81	0
3	30217624	51.91	0
3	31802542	52.01	0
3	33390334	52.11	0
3	34975703	52.21	0
3	36556766	52.31	0
3	38133727	52.41	0
3	39722590	52.51	0
3	41312267	52.61	0
3	42893472	52.71	0
3	44475537	52.81	0
3	46052478	52.91	0
3	47644447	53.01	0
3	49207837	53.11	0
3	50809312	53.21	0
3	52389887	53.31	0
3	53956659	53.41	0
3	55517907	53.51	0
3	57121865	53.61	0
3	58698097	53.71	0
3	60285812	53.81	0
3	61882615	53.91	0
3	63453267	54.01	0
3	65034494	54.11	0
3	66619493	54.21	0
3	68194682	54.31	0
3	69784499	54.41	0
3	71368218	54.51	0
3	72941878	54.61	0
3	74515058	54.71	0
3	76104463	54.81	0
3	77684440	54.91	0
3	79272012	55.01	0
3	80855484	55.11	0
3	82439626	55.21	0
3	84020963	55.31	0
3	85600455	55.41	0
3	87178213	55.51	0
3	88765052	55.61	0
3	90351873	55.71	0
3	91934451	55.81	0
3	93516480	55.91	0
3	95099263	56.01	0
3	96681484	56.11	0
3	98268760	56.21	0
3	99846172	56.31	0
3	101430347	56.41	0
3	103017908	56.51	0
3	104600315	56.61	0
3	106190183	56.71	0
3	107775158	56.81	0
3	109356276	56.91	0
3	110938107	57.01	0
3	112510875	57.11	0
3	114097823	57.21	0
3	115669243	57.31	0
3	117260488	57.41	0
3	118833684	57.51	0
3	120425755	57.61	0
3	121987619	57.71	0
3	123570552	57.81	0
3	125172509	57.91	0
3	126757027	58.01	0
3	128326472	58.11	0
3	129923435	58.21	0
3	131490469	58.31	0
3	133080026	58.41	0
3	134662340	58.51	0
3	136246434	58.61	0
3	137832979	58.71	0
3	139417572	58.81	0
3	141000307	58.91	0
3	142578299	59.01	0
3	144167033	59.11	0
3	145746255	59.21	0
3	147334778	59.31	0
3	148910459	59.41	0
3	150499019	59.51	0
3	152079744	59.61	0
3	153650397	59.71	0
3	155250125	59.81	0
3	156838464	59.91	0
3	158416160	60.01	-0.156863
3	159997206	60.11	-1.5659
3	161579779	60.21	-2.72179
3	163167503	60.31	-3.67003
3	164752454	60.41	-4.44792
3	166337102	60.51	-5.08606
3	167913058	60.61	-5.60955
3	169503088	60.71	-6.039
3	171067462	60.81	-6.3913
3	172659099	60.91	-6.6803
3	174255039	61.01	-6.91739
3	175828033	61.11	-7.11188
3	177406594	61.21	-7.27143
3	178996535	61.31	-7.40232
3	180578953	61.41	-7.5097
3	182151133	61.51	-7.59778
3	183754563	61.61	-7.67004
3	185329150	61.71	-7.72932
3	186904227	61.81	-7.77795
3	188501634	61.91	-7.81784
3	190091310	62.01	-7.85056
3	191672783	62.11	-7.87741
3	193250059	62.21	-7.89943
3	194833594	62.31	-7.9175
3	196415181	62.41	-7.93232
3	198005357	62.51	-7.94448
3	199582997	62.61	-7.95445
3	201170386	62.71	-7.96264
3	202750348	62.81	-7.96935
3	204323884	62.91	-7.97486
3	205918065	63.01	-7.97937
3	207490621	63.11	-7.98308
3	209088387	63.21	-7.98612
3	210668307	63.31	-7.98861
3	212244493	63.41	-7.99066
3	213834795	63.51	-7.99234
3	215421506	63.61	-7.99371
3	217004031	63.71	-7.99484
3	218584622	63.81	-7.99577
3	220169642	63.91	-7.99653
3	221761729	64.01	0
3	223346462	64.11	0
3	224913687	64.21	0
3	226503616	64.31	0
3	228088755	64.41	0
3	229669534	64.51	0
3	231264452	64.61	0
3	232829994	64.71	0
3	234416605	64.81	0
3	236000001	64.91	0
3	237590139	65.01	0
3	239168479	65.11	0
3	240750234	65.21	0
3	242339130	65.31	0
3	243901924	65.41	0
3	245490250	65.51	0
3	247076371	65.61	0
3	248652571	65.71	0
3	250242581	65.81	0
3	251829714	65.91	0
3	253398911	66.01	0
3	254993289	66.11	0
3	256567924	66.21	0
3	258163851	66.31	0
3	259744703	66.41	0
3	261328274	66.51	0
3	262907106	66.61	0
3	264501261	66.71	0
3	266060916	66.81	0
3	267670823	66.91	0
3	269258722	67.01	0
3	270828482	67.11	0
3	272421594	67.21	0
3	274002117	67.31	0
3	275580461	67.41	0
3	277157127	67.51	0
3	278744242	67.61	0
3	280317738	67.71	0
3	281909778	67.81	0
3	283482673	67.91	0
3	285073432	68.01	0
3	286659531	68.11	0
3	288237273	68.21	0
3	289820772	68.31	0
3	291403914	68.41	0
3	292981421	68.51	0
3	294556276	68.61	0
3	296147899	68.71	0
3	297725070	68.81	0
3	299294496	68.91	0
3	300889370	69.01	0
3	302468597	69.11	0
3	304052273	69.21	0
3	305646765	69.31	0
3	307221105	69.41	0
3	308800435	69.51	0
3	310378109	69.61	0
3	311962829	69.71	0
3	313549826	69.81	0
3	315108416	69.91	0
7	231	1.11	242.45
7	664	1.21	242.45
7	1098	1.31	242.45
7	1531	1.41	242.45
7	1955	1.51	242.45
7	2388	1.61	242.45
7	2822	1.71	242.45
7	3256	1.81	242.45
7	3680	1.91	242.45
7	4121	2.01	242.45
7	4545	2.11	242.45
7	4975	2.21	242.45
7	5408	2.31	242.45
7	5838	2.41	242.45
7	6268	2.51	242.45
7	6701	2.61	242.45
7	7125	2.71	242.45
7	7558	2.81	242.45
7	7976	2.91	242.45
7	8410	3.01	242.45
7	8828	3.11	242.45
7	9249	3.21	242.45
7	9673	3.31	242.45
7	10106	3.41	242.45
7	10539	3.51	242.45
7	10972	3.61	242.45
7	11396	3.71	242.45
7	11829	3.81	242.45
7	12247	3.91	242.45
7	12681	4.01	242.45
7	13102	4.11	242.45
7	13535	4.21	242.45
7	13968	4.31	242.45
7	14398	4.41	242.45
7	14822	4.51	242.45
7	15240	4.61	242.45
7	15673	4.71	242.45
7	16106	4.81	242.45
7	16539	4.91	242.45
7	16967	5.01	242.45
7	17394	5.11	242.45
7	17827	5.21	242.45
7	18257	5.31	242.45
7	18690	5.41	242.45
7	19114	5.51	242.45
7	19541	5.61	242.45
7	19968	5.71	242.45
7	20395	5.81	242.45
7	20828	5.91	242.45
7	21262	6.01	242.45
7	21692	6.11	242.45
7	22125	6.21	242.45
7	22555	6.31	242.45
7	22979	6.41	242.45
7	23409	6.51	242.45
7	23842	6.61	242.45
7	24269	6.71	242.45
7	24702	6.81	242.45
7	25123	6.91	242.45
7	25560	7.01	242.45
7	25990	7.11	242.45
7	26417	7.21	242.45
7	26850	7.31	242.45
7	27283	7.41	242.45
7	27713	7.51	242.45
7	28143	7.61	242.45
7	28576	7.71	242.45
7	29006	7.81	242.45
7	29439	7.91	242.45
7	29879	8.01	242.45
7	30309	8.11	242.45
7	30739	8.21	242.45
7	31172	8.31	242.45
7	31605	8.41	242.45
7	32026	8.51	242.45
7	32459	8.61	242.45
7	32892	8.71	242.45
7	33313	8.81	242.45
7	33746	8.91	242.45
7	34180	9.01	242.45
7	34613	9.11	242.45
7	35046	9.21	242.45
7	35476	9.31	242.45
7	35909	9.41	242.45
7	36342	9.51	242.45
7	36772	9.61	242.45
7	37205	9.71	242.45
7	37635	9.81	242.45
7	38068	9.91	242.45
7	38505	10.01	242.45
7	38935	10.11	242.45
7	39365	10.21	242.45
7	39798	10.31	242.45
7	40225	10.41	242.45
7	40658	10.51	242.45
7	41079	10.61	242.45
7	41509	10.71	242.45
7	41933	10.81	242.45
7	42360	10.91	242.45
7	42791	11.01	242.45
7	43224	11.11	242.45
7	43651	11.21	242.45
7	44084	11.31	242.45
7	44514	11.41	242.45
7	44938	11.51	242.45
7	45365	11.61	242.45
7	45798	11.71	242.45
7	46219	11.81	242.45
7	46649	11.91	242.45
7	47086	12.01	242.45
7	47513	12.11	242.45
7	47934	12.21	242.45
7	48367	12.31	242.45
7	48800	12.41	242.45
7	49233	12.51	242.45
7	49660	12.61	242.45
7	50084	12.71	242.45
7	50508	12.81	242.45
7	50941	12.91	242.45
7	51363	13.01	242.45
7	51781	13.11	242.45
7	52208	13.21	242.45
7	52638	13.31	242.45
7	53062	13.41	242.45
7	53495	13.51	242.45
7	53916	13.61	242.45
7	54346	13.71	242.45
7	54779	13.81	242.45
7	55212	13.91	242.45
7	55652	14.01	242.45
7	56079	14.11	242.45
7	56512	14.21	242.45
7	56939	14.31	242.45
7	57372	14.41	242.45
7	57805	14.51	242.45
7	58238	14.61	242.45
7	58671	14.71	242.45
7	59101	14.81	242.45
7	59531	14.91	242.45
7	59962	15.01	242.45
7	60395	15.11	242.45
7	60828	15.21	242.45
7	61258	15.31	242.45
7	61682	15.41	242.45
7	62109	15.51	242.45
7	62539	15.61	242.45
7	62969	15.71	242.45
7	63393	15.81	242.45
7	63826	15.91	242.45
7	64263	16.01	242.45
7	64696	16.11	242.45
7	65126	16.21	242.45
7	65559	16.31	242.45
7	65989	16.41	242.45
7	66422	16.51	242.45
7	66855	16.61	242.45
7	67288	16.71	242.45
7	67709	16.81	242.45
7	68133	16.91	242.45
7	68570	17.01	242.45
7	69000	17.11	242.45
7	69430	17.21	242.45
7	69863	17.31	242.45
7	70296	17.41	242.45
7	70729	17.51	242.45
7	71162	17.61	242.45
7	71595	17.71	242.45
7	72019	17.81	242.45
7	72452	17.91	242.45
7	72880	18.01	242.45
7	73310	18.11	242.45
7	73737	18.21	242.45
7	74170	18.31	242.45
7	74588	18.41	242.45
7	75021	18.51	242.45
7	75451	18.61	242.45
7	75884	18.71	242.45
7	76317	18.81	242.45
7	76741	18.91	242.45
7	77181	19.01	242.45
7	77614	19.11	242.45
7	78041	19.21	242.45
7	78471	19.31	242.45
7	78904	19.41	242.45
7	79334	19.51	242.45
7	79767	19.61	242.45
7	80191	19.71	242.45
7	80624	19.81	242.45
7	81057	19.91	242.45
7	81497	20.01	242.45
7	81924	20.11	242.45
7	82357	20.21	242.45
7	82787	20.31	242.45
7	83196	20.41	242.45
7	83623	20.51	242.45
7	84053	20.61	242.45
7	84486	20.71	242.45
7	84913	20.81	242.45
7	85334	20.91	242.45
7	85771	21.01	242.45
7	86192	21.11	242.45
7	86625	21.21	242.45
7	87055	21.31	242.45
7	87488	21.41	242.45
7	87918	21.51	242.45
7	88345	21.61	242.45
7	88769	21.71	242.45
7	89196	21.81	242.45
7	89623	21.91	242.45
7	90054	22.01	242.45
7	90478	22.11	242.45
7	90911	22.21	242.45
7	91338	22.31	242.45
7	91765	22.41	242.45
7	92198	22.51	242.45
7	92625	22.61	242.45
7	93058	22.71	242.45
7	93476	22.81	242.45
7	93909	22.91	242.45
7	94331	23.01	242.45
7	94764	23.11	242.45
7	95197	23.21	242.45
7	95630	23.31	242.45
7	96057	23.41	242.45
7	96490	23.51	242.45
7	96923	23.61	242.45
7	97350	23.71	242.45
7	97780	23.81	242.45
7	98201	23.91	242.45
7	98641	24.01	242.45
7	99062	24.11	242.45
7	99477	24.21	242.45
7	99910	24.31	242.45
7	100343	24.41	242.45
7	100767	24.51	242.45
7	101191	24.61	242.45
7	101615	24.71	242.45
7	102045	24.81	242.45
7	102475	24.91	242.45
7	102903	25.01	242.45
7	103336	25.11	242.45
7	103757	25.21	242.45
7	104181	25.31	242.45
7	104590	25.41	242.45
7	105017	25.51	242.45
7	105450	25.61	242.45
7	105883	25.71	242.45
7	106316	25.81	242.45
7	106749	25.91	242.45
7	107186	26.01	242.45
7	107610	26.11	242.45
7	108034	26.21	242.45
7	108467	26.31	242.45
7	108900	26.41	242.45
7	109330	26.51	242.45
7	109751	26.61	242.45
7	110184	26.71	242.45
7	110602	26.81	242.45
7	111032	26.91	242.45
7	111466	27.01	242.45
7	111899	27.11	242.45
7	112332	27.21	242.45
7	112759	27.31	242.45
7	113180	27.41	242.45
7	113607	27.51	242.45
7	114040	27.61	242.45
7	114473	27.71	242.45
7	114897	27.81	242.45
7	115321	27.91	242.45
7	115755	28.01	242.45
7	116182	28.11	242.45
7	116615	28.21	242.45
7	117048	28.31	242.45
7	117481	28.41	242.45
7	117914	28.51	242.45
7	118341	28.61	242.45
7	118768	28.71	242.45
7	119198	28.81	242.45
7	119631	28.91	242.45
7	120071	29.01	242.45
7	120504	29.11	242.45
7	120925	29.21	242.45
7	121352	29.31	242.45
7	121785	29.41	242.45
7	122212	29.51	242.45
7	122633	29.61	242.45
7	123066	29.71	242.45
7	123499	29.81	242.45
7	123926	29.91	242.45
7	124366	30.01	242.45
7	124799	30.11	242.45
7	125226	30.21	242.45
7	125644	30.31	242.45
7	126077	30.41	242.45
7	126504	30.51	242.45
7	126937	30.61	242.45
7	127367	30.71	242.45
7	127800	30.81	242.45
7	128227	30.91	242.45
7	128661	31.01	242.45
7	129091	31.11	242.45
7	129524	31.21	242.45
7	129948	31.31	242.45
7	130369	31.41	242.45
7	130802	31.51	242.45
7	131220	31.61	242.45
7	131653	31.71	242.45
7	132086	31.81	242.45
7	132516	31.91	242.45
7	132950	32.01	242.45
7	133383	32.11	242.45
7	133807	32.21	242.45
7	134234	32.31	242.45
7	134664	32.41	242.45
7	135094	32.51	242.45
7	135527	32.61	242.45
7	135939	32.71	242.45
7	136366	32.81	242.45
7	136799	32.91	242.45
7	137239	33.01	242.45
7	137669	33.11	242.45
7	138096	33.21	242.45
7	138526	33.31	242.45
7	138959	33.41	242.45
7	139389	33.51	242.45
7	139813	33.61	242.45
7	140240	33.71	242.45
7	140673	33.81	242.45
7	141088	33.91	242.45
7	141522	34.01	242.45
7	141949	34.11	242.45
7	142364	34.21	242.45
7	142785	34.31	242.45
7	143212	34.41	242.45
7	143624	34.51	242.45
7	144045	34.61	242.45
7	144478	34.71	242.45
7	144896	34.81	242.45
7	145326	34.91	242.45
7	145754	35.01	242.45
7	146184	35.11	242.45
7	146617	35.21	242.45
7	147047	35.31	242.45
7	147468	35.41	242.45
7	147895	35.51	242.45
7	148325	35.61	242.45
7	148740	35.71	242.45
7	149173	35.81	242.45
7	149600	35.91	242.45
7	150037	36.01	242.45
7	150467	36.11	242.45
7	150897	36.21	242.45
7	151330	36.31	242.45
7	151763	36.41	242.45
7	152196	36.51	242.45
7	152617	36.61	242.45
7	153038	36.71	242.45
7	153465	36.81	242.45
7	153895	36.91	242.45
7	154320	37.01	242.45
7	154753	37.11	242.45
7	155183	37.21	242.45
7	155610	37.31	242.45
7	156037	37.41	242.45
7	156470	37.51	242.45
7	156897	37.61	242.45
7	157330	37.71	242.45
7	157754	37.81	242.45
7	158184	37.91	242.45
7	158618	38.01	242.45
7	159051	38.11	242.45
7	159472	38.21	242.45
7	159905	38.31	242.45
7	160329	38.41	242.45
7	160759	38.51	242.45
7	161192	38.61	242.45
7	161625	38.71	242.45
7	162058	38.81	242.45
7	162488	38.91	242.45
7	162928	39.01	242.45
7	163349	39.11	242.45
7	163770	39.21	242.45
7	164182	39.31	242.45
7	164615	39.41	242.45
7	165048	39.51	242.45
7	165481	39.61	242.45
7	165914	39.71	242.45
7	166344	39.81	242.45
7	166771	39.91	242.45
7	167208	40.01	242.45
7	167641	40.11	242.45
7	168074	40.21	242.45
7	168507	40.31	242.45
7	168940	40.41	242.45
7	169373	40.51	242.45
7	169800	40.61	242.45
7	170227	40.71	242.45
7	170651	40.81	242.45
7	171084	40.91	242.45
7	171521	41.01	242.45
7	171945	41.11	242.45
7	172378	41.21	242.45
7	172811	41.31	242.45
7	173244	41.41	242.45
7	173677	41.51	242.45
7	174104	41.61	242.45
7	174534	41.71	242.45
7	174964	41.81	242.45
7	175394	41.91	242.45
7	175834	42.01	242.45
7	176249	42.11	242.45
7	176676	42.21	242.45
7	177097	42.31	242.45
7	177530	42.41	242.45
7	177960	42.51	242.45
7	178390	42.61	242.45
7	178817	42.71	242.45
7	179250	42.81	242.45
7	179668	42.91	242.45
7	180102	43.01	242.45
7	180526	43.11	242.45
7	180944	43.21	242.45
7	181371	43.31	242.45
7	181804	43.41	242.45
7	182237	43.51	242.45
7	182670	43.61	242.45
7	183103	43.71	242.45
7	183527	43.81	242.45
7	183951	43.91	242.45
7	184382	44.01	242.45
7	184815	44.11	242.45
7	185239	44.21	242.45
7	185669	44.31	242.45
7	186099	44.41	242.45
7	186532	44.51	242.45
7	186950	44.61	242.45
7	187374	44.71	242.45
7	187795	44.81	242.45
7	188216	44.91	242.45
7	188656	45.01	242.45
7	189077	45.11	242.45
7	189504	45.21	242.45
7	189931	45.31	242.45
7	190361	45.41	242.45
7	190794	45.51	242.45
7	191227	45.61	242.45
7	191660	45.71	242.45
7	192078	45.81	242.45
7	192508	45.91	242.45
7	192936	46.01	242.45
7	193354	46.11	242.45
7	193784	46.21	242.45
7	194217	46.31	242.45
7	194647	46.41	242.45
7	195080	46.51	242.45
7	195501	46.61	242.45
7	195928	46.71	242.45
7	196358	46.81	242.45
7	196788	46.91	242.45
7	197222	47.01	242.45
7	197643	47.11	242.45
7	198076	47.21	242.45
7	198509	47.31	242.45
7	198939	47.41	242.45
7	199351	47.51	242.45
7	199784	47.61	242.45
7	200208	47.71	242.45
7	200641	47.81	242.45
7	201074	47.91	242.45
7	201514	48.01	242.45
7	201947	48.11	242.45
7	202380	48.21	242.45
7	202813	48.31	242.45
7	203240	48.41	242.45
7	203673	48.51	242.45
7	204100	48.61	242.45
7	204521	48.71	242.45
7	204954	48.81	242.45
7	205378	48.91	242.45
7	205809	49.01	242.45
7	206242	49.11	242.45
7	206672	49.21	242.45
7	207105	49.31	242.45
7	207529	49.41	242.45
7	207956	49.51	242.45
7	208371	49.61	242.45
7	208804	49.71	242.45
7	209225	49.81	242.45
7	209652	49.91	242.45
7	210087	50.01	242.45
7	1721769	50.11	242.45
7	3318308	50.21	242.45
7	4899461	50.31	242.45
7	6475789	50.41	242.45
7	8057374	50.51	242.45
7	9640235	50.61	242.45
7	11212331	50.71	242.45
7	12813166	50.81	242.45
7	14385730	50.91	242.45
7	15977895	51.01	242.45
7	17556275	51.11	242.45
7	19139346	51.21	242.45
7	20731410	51.31	242.45
7	22319763	51.41	242.45
7	23889162	51.51	242.45
7	25472783	51.61	242.45
7	27057584	51.71	242.45
7	28647203	51.81	242.45
7	30217624	51.91	242.45
7	31802542	52.01	242.45
7	33390334	52.11	242.45
7	34975703	52.21	242.45
7	36556766	52.31	242.45
7	38133727	52.41	242.45
7	39722590	52.51	242.45
7	41312267	52.61	242.45
7	42893472	52.71	242.45
7	44475537	52.81	242.45
7	46052478	52.91	242.45
7	47644447	53.01	242.45
7	49207837	53.11	242.45
7	50809312	53.21	242.45
7	52389887	53.31	242.45
7	53956659	53.41	242.45
7	55517907	53.51	242.45
7	57121865	53.61	242.45
7	58698097	53.71	242.45
7	60285812	53.81	242.45
7	61882615	53.91	242.45
7	63453267	54.01	242.45
7	65034494	54.11	242.45
7	66619493	54.21	242.45
7	68194682	54.31	242.45
7	69784499	54.41	242.45
7	71368218	54.51	242.45
7	72941878	54.61	242.45
7	74515058	54.71	242.45
7	76104463	54.81	242.45
7	77684440	54.91	242.45
7	79272012	55.01	242.45
7	80855484	55.11	242.45
7	82439626	55.21	242.45
7	84020963	55.31	242.45
7	85600455	55.41	242.45
7	87178213	55.51	242.45
7	88765052	55.61	242.45
7	90351873	55.71	242.45
7	91934451	55.81	242.45
7	93516480	55.91	242.45
7	95099263	56.01	242.45
7	96681484	56.11	242.45
7	98268760	56.21	242.45
7	99846172	56.31	242.45
7	101430347	56.41	242.45
7	103017908	56.51	242.45
7	104600315	56.61	242.45
7	106190183	56.71	242.45
7	107775158	56.81	242.45
7	109356276	56.91	242.45
7	110938107	57.01	242.45
7	112510875	57.11	242.45
7	114097823	57.21	242.45
7	115669243	57.31	242.45
7	117260488	57.41	242.45
7	118833684	57.51	242.45
7	120425755	57.61	242.45
7	121987619	57.71	242.45
7	123570552	57.81	242.45
7	125172509	57.91	242.45
7	126757027	58.01	242.45
7	128326472	58.11	242.45
7	129923435	58.21	242.45
7	131490469	58.31	242.45
7	133080026	58.41	242.45
7	134662340	58.51	242.45
7	136246434	58.61	242.45
7	137832979	58.71	242.45
7	139417572	58.81	242.45
7	141000307	58.91	242.45
7	142578299	59.01	242.45
7	144167033	59.11	242.45
7	145746255	59.21	242.45
7	147334778	59.31	242.45
7	148910459	59.41	242.45
7	150499019	59.51	242.45
7	152079744	59.61	242.45
7	153650397	59.71	242.45
7	155250125	59.81	242.45
7	156838464	59.91	242.45
7	158416160	60.01	242.45
7	159997206	60.11	242.45
7	161579779	60.21	242.45
7	163167503	60.31	242.45
7	164752454	60.41	242.45
7	166337102	60.51	242.45
7	167913058	60.61	242.45
7	169503088	60.71	242.45
7	171067462	60.81	242.45
7	172659099	60.91	242.45
7	174255039	61.01	242.45
7	175828033	61.11	242.45
7	177406594	61.21	242.45
7	178996535	61.31	242.45
7	180578953	61.41	242.45
7	182151133	61.51	242.45
7	183754563	61.61	242.45
7	185329150	61.71	242.45
7	186904227	61.81	242.45
7	188501634	61.91	242.45
7	190091310	62.01	242.45
7	191672783	62.11	242.45
7	193250059	62.21	242.45
7	194833594	62.31	242.45
7	196415181	62.41	242.45
7	198005357	62.51	242.45
7	199582997	62.61	242.45
7	201170386	62.71	242.45
7	202750348	62.81	242.45
7	204323884	62.91	242.45
7	205918065	63.01	242.45
7	207490621	63.11	242.45
7	209088387	63.21	242.45
7	210668307	63.31	242.45
7	212244493	63.41	242.45
7	213834795	63.51	242.45
7	215421506	63.61	242.45
7	217004031	63.71	242.45
7	218584622	63.81	242.45
7	220169642	63.91	242.45
7	221761729	64.01	242.45
7	223346462	64.11	242.45
7	224913687	64.21	242.45
7	226503616	64.31	242.45
7	228088755	64.41	242.45
7	229669534	64.51	242.45
7	231264452	64.61	242.45
7	232829994	64.71	242.45
7	234416605	64.81	242.45
7	236000001	64.91	242.45
7	237590139	65.01	242.45
7	239168479	65.11	242.45
7	240750234	65.21	242.45
7	242339130	65.31	242.45
7	243901924	65.41	242.45
7	245490250	65.51	242.45
7	247076371	65.61	242.45
7	248652571	65.71	242.45
7	250242581	65.81	242.45
7	251829714	65.91	242.45
7	253398911	66.01	242.45
7	254993289	66.11	242.45
7	256567924	66.21	242.45
7	258163851	66.31	242.45
7	259744703	66.41	242.45
7	261328274	66.51	242.45
7	262907106	66.61	242.45
7	264501261	66.71	242.45
7	266060916	66.81	242.45
7	267670823	66.91	242.45
7	269258722	67.01	242.45
7	270828482	67.11	242.45
7	272421594	67.21	242.45
7	274002117	67.31	242.45
7	275580461	67.41	242.45
7	277157127	67.51	242.45
7	278744242	67.61	242.45
7	280317738	67.71	242.45
7	281909778	67.81	242.45
7	283482673	67.91	242.45
7	285073432	68.01	242.45
7	286659531	68.11	242.45
7	288237273	68.21	242.45
7	289820772	68.31	242.45
7	291403914	68.41	242.45
7	292981421	68.51	242.45
7	294556276	68.61	242.45
7	296147899	68.71	242.45
7	297725070	68.81	242.45
7	299294496	68.91	242.45
7	300889370	69.01	242.45
7	302468597	69.11	242.45
7	304052273	69.21	242.45
7	305646765	69.31	242.45
7	307221105	69.41	242.45
7	308800435	69.51	242.45
7	310378109	69.61	242.45
7	311962829	69.71	242.45
7	313549826	69.81	242.45
7	315108416	69.91	242.45
6	231	1.11	54.3902
6	664	1.21	57.1682
6	1098	1.31	59.9462
6	1531	1.41	62.7242
6	1955	1.51	65.5021
6	2388	1.61	68.2801
6	2822	1.71	71.058
6	3256	1.81	73.836
6	3680	1.91	76.6139
6	4121	2.01	79.3918
6	4545	2.11	82.1697
6	4975	2.21	84.9475
6	5408	2.31	87.7254
6	5838	2.41	90.5032
6	6268	2.51	93.2811
6	6701	2.61	96.0589
6	7125	2.71	98.8367
6	7558	2.81	101.615
6	7976	2.91	104.392
6	8410	3.01	107.17
6	8828	3.11	109.948
6	9249	3.21	112.726
6	9673	3.31	115.504
6	10106	3.41	118.281
6	10539	3.51	121.059
6	10972	3.61	123.837
6	11396	3.71	126.615
6	11829	3.81	129.392
6	12247	3.91	132.17
6	12681	4.01	134.948
6	13102	4.11	137.726
6	13535	4.21	140.503
6	13968	4.31	143.281
6	14398	4.41	146.059
6	14822	4.51	148.837
6	15240	4.61	151.615
6	15673	4.71	154.392
6	16106	4.81	157.17
6	16539	4.91	159.948
6	16967	5.01	162.726
6	17394	5.11	165.503
6	17827	5.21	168.281
6	18257	5.31	171.059
6	18690	5.41	173.837
6	19114	5.51	176.615
6	19541	5.61	179.392
6	19968	5.71	182.17
6	20395	5.81	184.948
6	20828	5.91	187.726
6	21262	6.01	190.503
6	21692	6.11	193.281
6	22125	6.21	196.059
6	22555	6.31	198.837
6	22979	6.41	201.615
6	23409	6.51	204.392
6	23842	6.61	207.17
6	24269	6.71	209.948
6	24702	6.81	212.726
6	25123	6.91	215.503
6	25560	7.01	218.281
6	25990	7.11	221.059
6	26417	7.21	223.837
6	26850	7.31	226.615
6	27283	7.41	229.392
6	27713	7.51	232.17
6	28143	7.61	234.948
6	28576	7.71	237.726
6	29006	7.81	240.503
6	29439	7.91	243.281
6	29879	8.01	246.059
6	30309	8.11	248.837
6	30739	8.21	251.615
6	31172	8.31	254.392
6	31605	8.41	257.17
6	32026	8.51	259.948
6	32459	8.61	262.726
6	32892	8.71	265.503
6	33313	8.81	268.281
6	33746	8.91	271.059
6	34180	9.01	273.837
6	34613	9.11	276.615
6	35046	9.21	279.392
6	35476	9.31	282.17
6	35909	9.41	284.948
6	36342	9.51	287.726
6	36772	9.61	290.503
6	37205	9.71	293.281
6	37635	9.81	296.059
6	38068	9.91	298.837
6	38505	10.01	301.615
6	38935	10.11	304.392
6	39365	10.21	307.17
6	39798	10.31	309.948
6	40225	10.41	312.726
6	40658	10.51	315.504
6	41079	10.61	318.281
6	41509	10.71	321.059
6	41933	10.81	323.837
6	42360	10.91	326.615
6	42791	11.01	329.392
6	43224	11.11	332.17
6	43651	11.21	334.948
6	44084	11.31	337.726
6	44514	11.41	340.504
6	44938	11.51	343.281
6	45365	11.61	346.059
6	45798	11.71	348.837
6	46219	11.81	351.615
6	46649	11.91	354.392
6	47086	12.01	357.17
6	47513	12.11	359.948
6	47934	12.21	362.726
6	48367	12.31	365.504
6	48800	12.41	368.281
6	49233	12.51	371.059
6	49660	12.61	373.837
6	50084	12.71	376.615
6	50508	12.81	379.392
6	50941	12.91	382.17
6	51363	13.01	384.948
6	51781	13.11	387.726
6	52208	13.21	390.504
6	52638	13.31	393.281
6	53062	13.41	396.059
6	53495	13.51	398.837
6	53916	13.61	401.615
6	54346	13.71	404.392
6	54779	13.81	407.17
6	55212	13.91	409.948
6	55652	14.01	412.726
6	56079	14.11	415.504
6	56512	14.21	418.281
6	56939	14.31	421.059
6	57372	14.41	423.837
6	57805	14.51	426.615
6	58238	14.61	429.392
6	58671	14.71	432.17
6	59101	14.81	434.948
6	59531	14.91	437.726
6	59962	15.01	440.504
6	60395	15.11	443.281
6	60828	15.21	446.059
6	61258	15.31	448.837
6	61682	15.41	451.615
6	62109	15.51	454.393
6	62539	15.61	457.17
6	62969	15.71	459.948
6	63393	15.81	462.726
6	63826	15.91	465.504
6	64263	16.01	468.281
6	64696	16.11	471.059
6	65126	16.21	473.837
6	65559	16.31	476.615
6	65989	16.41	479.393
6	66422	16.51	482.17
6	66855	16.61	484.948
6	67288	16.71	487.726
6	67709	16.81	490.504
6	68133	16.91	493.281
6	68570	17.01	496.059
6	69000	17.11	498.837
6	69430	17.21	501.615
6	69863	17.31	504.393
6	70296	17.41	507.17
6	70729	17.51	509.948
6	71162	17.61	512.726
6	71595	17.71	515.504
6	72019	17.81	518.281
6	72452	17.91	521.059
6	72880	18.01	523.837
6	73310	18.11	526.615
6	73737	18.21	529.393
6	74170	18.31	532.17
6	74588	18.41	534.948
6	75021	18.51	537.726
6	75451	18.61	540.504
6	75884	18.71	543.281
6	76317	18.81	546.059
6	76741	18.91	548.837
6	77181	19.01	551.615
6	77614	19.11	554.393
6	78041	19.21	557.17
6	78471	19.31	559.948
6	78904	19.41	562.726
6	79334	19.51	565.504
6	79767	19.61	568.281
6	80191	19.71	571.059
6	80624	19.81	573.837
6	81057	19.91	576.615
6	81497	20.01	579.393
6	81924	20.11	582.17
6	82357	20.21	584.948
6	82787	20.31	587.726
6	83196	20.41	590.504
6	83623	20.51	593.282
6	84053	20.61	596.059
6	84486	20.71	598.837
6	84913	20.81	601.615
6	85334	20.91	604.393
6	85771	21.01	607.17
6	86192	21.11	609.948
6	86625	21.21	612.726
6	87055	21.31	615.504
6	87488	21.41	618.282
6	87918	21.51	621.059
6	88345	21.61	623.837
6	88769	21.71	626.615
6	89196	21.81	629.393
6	89623	21.91	632.17
6	90054	22.01	634.948
6	90478	22.11	637.726
6	90911	22.21	640.504
6	91338	22.31	643.282
6	91765	22.41	646.059
6	92198	22.51	648.837
6	92625	22.61	651.615
6	93058	22.71	654.393
6	93476	22.81	657.17
6	93909	22.91	659.948
6	94331	23.01	662.726
6	94764	23.11	665.504
6	95197	23.21	668.282
6	95630	23.31	671.059
6	96057	23.41	673.837
6	96490	23.51	676.615
6	96923	23.61	679.393
6	97350	23.71	682.17
6	97780	23.81	684.948
6	98201	23.91	687.726
6	98641	24.01	690.504
6	99062	24.11	693.282
6	99477	24.21	696.059
6	99910	24.31	698.837
6	100343	24.41	701.615
6	100767	24.51	704.393
6	101191	24.61	707.17
6	101615	24.71	709.948
6	102045	24.81	712.726
6	102475	24.91	715.504
6	102903	25.01	718.282
6	103336	25.11	721.059
6	103757	25.21	723.837
6	104181	25.31	726.615
6	104590	25.41	729.393
6	105017	25.51	732.171
6	105450	25.61	734.948
6	105883	25.71	737.726
6	106316	25.81	740.504
6	106749	25.91	743.282
6	107186	26.01	746.059
6	107610	26.11	748.837
6	108034	26.21	751.615
6	108467	26.31	754.393
6	108900	26.41	757.171
6	109330	26.51	759.948
6	109751	26.61	762.726
6	110184	26.71	765.504
6	110602	26.81	768.282
6	111032	26.91	771.059
6	111466	27.01	773.837
6	111899	27.11	776.615
6	112332	27.21	779.393
6	112759	27.31	782.171
6	113180	27.41	784.948
6	113607	27.51	787.726
6	114040	27.61	790.504
6	114473	27.71	793.282
6	114897	27.81	796.059
6	115321	27.91	798.837
6	115755	28.01	801.615
6	116182	28.11	804.393
6	116615	28.21	807.171
6	117048	28.31	809.948
6	117481	28.41	812.726
6	117914	28.51	815.504
6	118341	28.61	818.282
6	118768	28.71	821.059
6	119198	28.81	823.837
6	119631	28.91	826.615
6	120071	29.01	829.393
6	120504	29.11	832.171
6	120925	29.21	834.948
6	121352	29.31	837.726
6	121785	29.41	840.504
6	122212	29.51	843.282
6	122633	29.61	846.059
6	123066	29.71	848.837
6	123499	29.81	851.615
6	123926	29.91	854.393
6	124366	30.01	857.171
6	124799	30.11	859.948
6	125226	30.21	862.726
6	125644	30.31	865.504
6	126077	30.41	868.282
6	126504	30.51	871.06
6	126937	30.61	873.837
6	127367	30.71	876.615
6	127800	30.81	879.393
6	128227	30.91	882.171
6	128661	31.01	884.948
6	129091	31.11	887.726
6	129524	31.21	890.504
6	129948	31.31	893.282
6	130369	31.41	896.06
6	130802	31.51	898.837
6	131220	31.61	901.615
6	131653	31.71	904.393
6	132086	31.81	907.171
6	132516	31.91	909.948
6	132950	32.01	912.726
6	133383	32.11	915.504
6	133807	32.21	918.282
6	134234	32.31	921.06
6	134664	32.41	923.837
6	135094	32.51	926.615
6	135527	32.61	929.393
6	135939	32.71	932.171
6	136366	32.81	934.948
6	136799	32.91	937.726
6	137239	33.01	940.504
6	137669	33.11	943.282
6	138096	33.21	946.06
6	138526	33.31	948.837
6	138959	33.41	951.615
6	139389	33.51	954.393
6	139813	33.61	957.171
6	140240	33.71	959.948
6	140673	33.81	962.726
6	141088	33.91	965.504
6	141522	34.01	968.282
6	141949	34.11	971.06
6	142364	34.21	973.837
6	142785	34.31	976.615
6	143212	34.41	979.393
6	143624	34.51	982.171
6	144045	34.61	984.948
6	144478	34.71	987.726
6	144896	34.81	990.504
6	145326	34.91	993.282
6	145754	35.01	996.06
6	146184	35.11	998.837
6	146617	35.21	1001.62
6	147047	35.31	1004.39
6	147468	35.41	1007.17
6	147895	35.51	1009.95
6	148325	35.61	1012.73
6	148740	35.71	1015.5
6	149173	35.81	1018.28
6	149600	35.91	1021.06
6	150037	36.01	1023.84
6	150467	36.11	1026.62
6	150897	36.21	1029.39
6	151330	36.31	1032.17
6	151763	36.41	1034.95
6	152196	36.51	1037.73
6	152617	36.61	1040.5
6	153038	36.71	1043.28
6	153465	36.81	1046.06
6	153895	36.91	1048.84
6	154320	37.01	1051.62
6	154753	37.11	1054.39
6	155183	37.21	1057.17
6	155610	37.31	1059.95
6	156037	37.41	1062.73
6	156470	37.51	1065.5
6	156897	37.61	1068.28
6	157330	37.71	1071.06
6	157754	37.81	1073.84
6	158184	37.91	1076.62
6	158618	38.01	1079.39
6	159051	38.11	1082.17
6	159472	38.21	1084.95
6	159905	38.31	1087.73
6	160329	38.41	1090.5
6	160759	38.51	1093.28
6	161192	38.61	1096.06
6	161625	38.71	1098.84
6	162058	38.81	1101.62
6	162488	38.91	1104.39
6	162928	39.01	1107.17
6	163349	39.11	1109.95
6	163770	39.21	1112.73
6	164182	39.31	1115.5
6	164615	39.41	1118.28
6	165048	39.51	1121.06
6	165481	39.61	1123.84
6	165914	39.71	1126.62
6	166344	39.81	1129.39
6	166771	39.91	1132.17
6	167208	40.01	1134.95
6	167641	40.11	1137.73
6	168074	40.21	1140.5
6	168507	40.31	1143.28
6	168940	40.41	1146.06
6	169373	40.51	1148.84
6	169800	40.61	1151.62
6	170227	40.71	1154.39
6	170651	40.81	1157.17
6	171084	40.91	1159.95
6	171521	41.01	1162.73
6	171945	41.11	1165.5
6	172378	41.21	1168.28
6	172811	41.31	1171.06
6	173244	41.41	1173.84
6	173677	41.51	1176.62
6	174104	41.61	1179.39
6	174534	41.71	1182.17
6	174964	41.81	1184.95
6	175394	41.91	1187.73
6	175834	42.01	1190.5
6	176249	42.11	1193.28
6	176676	42.21	1196.06
6	177097	42.31	1198.84
6	177530	42.41	1201.62
6	177960	42.51	1204.39
6	178390	42.61	1207.17
6	178817	42.71	1209.95
6	179250	42.81	1212.73
6	179668	42.91	1215.5
6	180102	43.01	1218.28
6	180526	43.11	1221.06
6	180944	43.21	1223.84
6	181371	43.31	1226.62
6	181804	43.41	1229.39
6	182237	43.51	1232.17
6	182670	43.61	1234.95
6	183103	43.71	1237.73
6	183527	43.81	1240.5
6	183951	43.91	1243.28
6	184382	44.01	1246.06
6	184815	44.11	1248.84
6	185239	44.21	1251.62
6	185669	44.31	1254.39
6	186099	44.41	1257.17
6	186532	44.51	1259.95
6	186950	44.61	1262.73
6	187374	44.71	1265.5
6	187795	44.81	1268.28
6	188216	44.91	1271.06
6	188656	45.01	1273.84
6	189077	45.11	1276.62
6	189504	45.21	1279.39
6	189931	45.31	1282.17
6	190361	45.41	1284.95
6	190794	45.51	1287.73
6	191227	45.61	1290.5
6	191660	45.71	1293.28
6	192078	45.81	1296.06
6	192508	45.91	1298.84
6	192936	46.01	1301.62
6	193354	46.11	1304.39
6	193784	46.21	1307.17
6	194217	46.31	1309.95
6	194647	46.41	1312.73
6	195080	46.51	1315.5
6	195501	46.61	1318.28
6	195928	46.71	1321.06
6	196358	46.81	1323.84
6	196788	46.91	1326.62
6	197222	47.01	1329.39
6	197643	47.11	1332.17
6	198076	47.21	1334.95
6	198509	47.31	1337.73
6	198939	47.41	1340.5
6	199351	47.51	1343.28
6	199784	47.61	1346.06
6	200208	47.71	1348.84
6	200641	47.81	1351.62
6	201074	47.91	1354.39
6	201514	48.01	1357.17
6	201947	48.11	1359.95
6	202380	48.21	1362.73
6	202813	48.31	1365.5
6	203240	48.41	1368.28
6	203673	48.51	1371.06
6	204100	48.61	1373.84
6	204521	48.71	1376.62
6	204954	48.81	1379.39
6	205378	48.91	1382.17
6	205809	49.01	1384.95
6	206242	49.11	1387.73
6	206672	49.21	1390.5
6	207105	49.31	1393.28
6	207529	49.41	1396.06
6	207956	49.51	1398.84
6	208371	49.61	1401.62
6	208804	49.71	1404.39
6	209225	49.81	1407.17
6	209652	49.91	1409.95
6	210087	50.01	1412.73
6	1721769	50.11	1415.5
6	3318308	50.21	1418.28
6	4899461	50.31	1421.06
6	6475789	50.41	1423.84
6	8057374	50.51	1426.62
6	9640235	50.61	1429.39
6	11212331	50.71	1432.17
6	12813166	50.81	1434.95
6	14385730	50.91	1437.73
6	15977895	51.01	1440.5
6	17556275	51.11	1443.28
6	19139346	51.21	1446.06
6	20731410	51.31	1448.84
6	22319763	51.41	1451.62
6	23889162	51.51	1454.39
6	25472783	51.61	1457.17
6	27057584	51.71	1459.95
6	28647203	51.81	1462.73
6	30217624	51.91	1465.5
6	31802542	52.01	1468.28
6	33390334	52.11	1471.06
6	34975703	52.21	1473.84
6	36556766	52.31	1476.62
6	38133727	52.41	1479.39
6	39722590	52.51	1482.17
6	41312267	52.61	1484.95
6	42893472	52.71	1487.73
6	44475537	52.81	1490.5
6	46052478	52.91	1493.28
6	47644447	53.01	1496.06
6	49207837	53.11	1498.84
6	50809312	53.21	1501.62
6	52389887	53.31	1504.39
6	53956659	53.41	1507.17
6	55517907	53.51	1509.95
6	57121865	53.61	1512.73
6	58698097	53.71	1515.5
6	60285812	53.81	1518.28
6	61882615	53.91	1521.06
6	63453267	54.01	1523.84
6	65034494	54.11	1526.62
6	66619493	54.21	1529.39
6	68194682	54.31	1532.17
6	69784499	54.41	1534.95
6	71368218	54.51	1537.73
6	72941878	54.61	1540.5
6	74515058	54.71	1543.28
6	76104463	54.81	1546.06
6	77684440	54.91	1548.84
6	79272012	55.01	1551.62
6	80855484	55.11	1554.39
6	82439626	55.21	1557.17
6	84020963	55.31	1559.95
6	85600455	55.41	1562.73
6	87178213	55.51	1565.5
6	88765052	55.61	1568.28
6	90351873	55.71	1571.06
6	91934451	55.81	1573.84
6	93516480	55.91	1576.62
6	95099263	56.01	1579.39
6	96681484	56.11	1582.17
6	98268760	56.21	1584.95
6	99846172	56.31	1587.73
6	101430347	56.41	1590.5
6	103017908	56.51	1593.28
6	104600315	56.61	1596.06
6	106190183	56.71	1598.84
6	107775158	56.81	1601.62
6	109356276	56.91	1604.39
6	110938107	57.01	1607.17
6	112510875	57.11	1609.95
6	114097823	57.21	1612.73
6	115669243	57.31	1615.5
6	117260488	57.41	1618.28
6	118833684	57.51	1621.06
6	120425755	57.61	1623.84
6	121987619	57.71	1626.62
6	123570552	57.81	1629.39
6	125172509	57.91	1632.17
6	126757027	58.01	1634.95
6	128326472	58.11	1637.73
6	129923435	58.21	1640.5
6	131490469	58.31	1643.28
6	133080026	58.41	1646.06
6	134662340	58.51	1648.84
6	136246434	58.61	1651.62
6	137832979	58.71	1654.39
6	139417572	58.81	1657.17
6	141000307	58.91	1659.95
6	142578299	59.01	1662.73
6	144167033	59.11	1665.5
6	145746255	59.21	1668.28
6	147334778	59.31	1671.06
6	148910459	59.41	1673.84
6	150499019	59.51	1676.62
6	152079744	59.61	1679.39
6	153650397	59.71	1682.17
6	155250125	59.81	1684.95
6	156838464	59.91	1687.73
6	158416160	60.01	1690.5
6	159997206	60.11	1693.28
6	161579779	60.21	1696.04
6	163167503	60.31	1698.77
6	164752454	60.41	1701.46
6	166337102	60.51	1704.11
6	167913058	60.61	1706.71
6	169503088	60.71	1709.25
6	171067462	60.81	1711.73
6	172659099	60.91	1714.15
6	174255039	61.01	1716.5
6	175828033	61.11	1718.78
6	177406594	61.21	1720.99
6	178996535	61.31	1723.12
6	180578953	61.41	1725.18
6	182151133	61.51	1727.17
6	183754563	61.61	1729.08
6	185329150	61.71	1730.92
6	186904227	61.81	1732.68
6	188501634	61.91	1734.36
6	190091310	62.01	1735.96
6	191672783	62.11	1737.48
6	193250059	62.21	1738.92
6	194833594	62.31	1740.29
6	196415181	62.41	1741.58
6	198005357	62.51	1742.78
6	199582997	62.61	1743.91
6	201170386	62.71	1744.96
6	202750348	62.81	1745.93
6	204323884	62.91	1746.81
6	205918065	63.01	1747.62
6	207490621	63.11	1748.35
6	209088387	63.21	1749
6	210668307	63.31	1749.57
6	212244493	63.41	1750.06
6	213834795	63.51	1750.47
6	215421506	63.61	1750.8
6	217004031	63.71	1751.05
6	218584622	63.81	1751.22
6	220169642	63.91	1751.31
6	221761729	64.01	1751.32
6	223346462	64.11	1751.32
6	224913687	64.21	1751.32
6	226503616	64.31	1751.32
6	228088755	64.41	1751.32
6	229669534	64.51	1751.32
6	231264452	64.61	1751.32
6	232829994	64.71	1751.32
6	234416605	64.81	1751.32
6	236000001	64.91	1751.32
6	237590139	65.01	1751.32
6	239168479	65.11	1751.32
6	240750234	65.21	1751.32
6	242339130	65.31	1751.32
6	243901924	65.41	1751.32
6	245490250	65.51	1751.32
6	247076371	65.61	1751.32
6	248652571	65.71	1751.32
6	250242581	65.81	1751.32
6	251829714	65.91	1751.32
6	253398911	66.01	1751.32
6	254993289	66.11	1751.32
6	256567924	66.21	1751.32
6	258163851	66.31	1751.32
6	259744703	66.41	1751.32
6	261328274	66.51	1751.32
6	262907106	66.61	1751.32
6	264501261	66.71	1751.32
6	266060916	66.81	1751.32
6	267670823	66.91	1751.32
6	269258722	67.01	1751.32
6	270828482	67.11	1751.32
6	272421594	67.21	1751.32
6	274002117	67.31	1751.32
6	275580461	67.41	1751.32
6	277157127	67.51	1751.32
6	278744242	67.61	1751.32
6	280317738	67.71	1751.32
6	281909778	67.81	1751.32
6	283482673	67.91	1751.32
6	285073432	68.01	1751.32
6	286659531	68.11	1751.32
6	288237273	68.21	1751.32
6	289820772	68.31	1751.32
6	291403914	68.41	1751.32
6	292981421	68.51	1751.32
6	294556276	68.61	1751.32
6	296147899	68.71	1751.32
6	297725070	68.81	1751.32
6	299294496	68.91	1751.32
6	300889370	69.01	1751.32
6	302468597	69.11	1751.32
6	304052273	69.21	1751.32
6	305646765	69.31	1751.32
6	307221105	69.41	1751.32
6	308800435	69.51	1751.32
6	310378109	69.61	1751.32
6	311962829	69.71	1751.32
6	313549826	69.81	1751.32
6	315108416	69.91	1751.32
5	231	1.11	27.78
5	664	1.21	27.7799
5	1098	1.31	27.7798
5	1531	1.41	27.7797
5	1955	1.51	27.7796
5	2388	1.61	27.7795
5	2822	1.71	27.7794
5	3256	1.81	27.7792
5	3680	1.91	27.7791
5	4121	2.01	27.7789
5	4545	2.11	27.7788
5	4975	2.21	27.7787
5	5408	2.31	27.7785
5	5838	2.41	27.7784
5	6268	2.51	27.7783
5	6701	2.61	27.7782
5	7125	2.71	27.7782
5	7558	2.81	27.7781
5	7976	2.91	27.778
5	8410	3.01	27.7779
5	8828	3.11	27.7779
5	9249	3.21	27.7779
5	9673	3.31	27.7778
5	10106	3.41	27.7778
5	10539	3.51	27.7778
5	10972	3.61	27.7777
5	11396	3.71	27.7777
5	11829	3.81	27.7777
5	12247	3.91	27.7777
5	12681	4.01	27.7777
5	13102	4.11	27.7777
5	13535	4.21	27.7777
5	13968	4.31	27.7777
5	14398	4.41	27.7777
5	14822	4.51	27.7777
5	15240	4.61	27.7777
5	15673	4.71	27.7777
5	16106	4.81	27.7777
5	16539	4.91	27.7777
5	16967	5.01	27.7777
5	17394	5.11	27.7777
5	17827	5.21	27.7778
5	18257	5.31	27.7778
5	18690	5.41	27.7778
5	19114	5.51	27.7778
5	19541	5.61	27.7778
5	19968	5.71	27.7778
5	20395	5.81	27.7778
5	20828	5.91	27.7778
5	21262	6.01	27.7778
5	21692	6.11	27.7778
5	22125	6.21	27.7778
5	22555	6.31	27.7778
5	22979	6.41	27.7778
5	23409	6.51	27.7778
5	23842	6.61	27.7778
5	24269	6.71	27.7778
5	24702	6.81	27.7778
5	25123	6.91	27.7778
5	25560	7.01	27.7778
5	25990	7.11	27.7778
5	26417	7.21	27.7778
5	26850	7.31	27.7778
5	27283	7.41	27.7778
5	27713	7.51	27.7778
5	28143	7.61	27.7778
5	28576	7.71	27.7778
5	29006	7.81	27.7778
5	29439	7.91	27.7778
5	29879	8.01	27.7778
5	30309	8.11	27.7778
5	30739	8.21	27.7778
5	31172	8.31	27.7778
5	31605	8.41	27.7778
5	32026	8.51	27.7778
5	32459	8.61	27.7778
5	32892	8.71	27.7778
5	33313	8.81	27.7778
5	33746	8.91	27.7778
5	34180	9.01	27.7778
5	34613	9.11	27.7778
5	35046	9.21	27.7778
5	35476	9.31	27.7778
5	35909	9.41	27.7778
5	36342	9.51	27.7778
5	36772	9.61	27.7778
5	37205	9.71	27.7778
5	37635	9.81	27.7778
5	38068	9.91	27.7778
5	38505	10.01	27.7778
5	38935	10.11	27.7778
5	39365	10.21	27.7778
5	39798	10.31	27.7778
5	40225	10.41	27.7778
5	40658	10.51	27.7778
5	41079	10.61	27.7778
5	41509	10.71	27.7778
5	41933	10.81	27.7778
5	42360	10.91	27.7778
5	42791	11.01	27.7778
5	43224	11.11	27.7778
5	43651	11.21	27.7778
5	44084	11.31	27.7778
5	44514	11.41	27.7778
5	44938	11.51	27.7778
5	45365	11.61	27.7778
5	45798	11.71	27.7778
5	46219	11.81	27.7778
5	46649	11.91	27.7778
5	47086	12.01	27.7778
5	47513	12.11	27.7778
5	47934	12.21	27.7778
5	48367	12.31	27.7778
5	48800	12.41	27.7778
5	49233	12.51	27.7778
5	49660	12.61	27.7778
5	50084	12.71	27.7778
5	50508	12.81	27.7778
5	50941	12.91	27.7778
5	51363	13.01	27.7778
5	51781	13.11	27.7778
5	52208	13.21	27.7778
5	52638	13.31	27.7778
5	53062	13.41	27.7778
5	53495	13.51	27.7778
5	53916	13.61	27.7778
5	54346	13.71	27.7778
5	54779	13.81	27.7778
5	55212	13.91	27.7778
5	55652	14.01	27.7778
5	56079	14.11	27.7778
5	56512	14.21	27.7778
5	56939	14.31	27.7778
5	57372	14.41	27.7778
5	57805	14.51	27.7778
5	58238	14.61	27.7778
5	58671	14.71	27.7778
5	59101	14.81	27.7778
5	59531	14.91	27.7778
5	59962	15.01	27.7778
5	60395	15.11	27.7778
5	60828	15.21	27.7778
5	61258	15.31	27.7778
5	61682	15.41	27.7778
5	62109	15.51	27.7778
5	62539	15.61	27.7778
5	62969	15.71	27.7778
5	63393	15.81	27.7778
5	63826	15.91	27.7778
5	64263	16.01	27.7778
5	64696	16.11	27.7778
5	65126	16.21	27.7778
5	65559	16.31	27.7778
5	65989	16.41	27.7778
5	66422	16.51	27.7778
5	66855	16.61	27.7778
5	67288	16.71	27.7778
5	67709	16.81	27.7778
5	68133	16.91	27.7778
5	68570	17.01	27.7778
5	69000	17.11	27.7778
5	69430	17.21	27.7778
5	69863	17.31	27.7778
5	70296	17.41	27.7778
5	70729	17.51	27.7778
5	71162	17.61	27.7778
5	71595	17.71	27.7778
5	72019	17.81	27.7778
5	72452	17.91	27.7778
5	72880	18.01	27.7778
5	73310	18.11	27.7778
5	73737	18.21	27.7778
5	74170	18.31	27.7778
5	74588	18.41	27.7778
5	75021	18.51	27.7778
5	75451	18.61	27.7778
5	75884	18.71	27.7778
5	76317	18.81	27.7778
5	76741	18.91	27.7778
5	77181	19.01	27.7778
5	77614	19.11	27.7778
5	78041	19.21	27.7778
5	78471	19.31	27.7778
5	78904	19.41	27.7778
5	79334	19.51	27.7778
5	79767	19.61	27.7778
5	80191	19.71	27.7778
5	80624	19.81	27.7778
5	81057	19.91	27.7778
5	81497	20.01	27.7778
5	81924	20.11	27.7778
5	82357	20.21	27.7778
5	82787	20.31	27.7778
5	83196	20.41	27.7778
5	83623	20.51	27.7778
5	84053	20.61	27.7778
5	84486	20.71	27.7778
5	84913	20.81	27.7778
5	85334	20.91	27.7778
5	85771	21.01	27.7778
5	86192	21.11	27.7778
5	86625	21.21	27.7778
5	87055	21.31	27.7778
5	87488	21.41	27.7778
5	87918	21.51	27.7778
5	88345	21.61	27.7778
5	88769	21.71	27.7778
5	89196	21.81	27.7778
5	89623	21.91	27.7778
5	90054	22.01	27.7778
5	90478	22.11	27.7778
5	90911	22.21	27.7778
5	91338	22.31	27.7778
5	91765	22.41	27.7778
5	92198	22.51	27.7778
5	92625	22.61	27.7778
5	93058	22.71	27.7778
5	93476	22.81	27.7778
5	93909	22.91	27.7778
5	94331	23.01	27.7778
5	94764	23.11	27.7778
5	95197	23.21	27.7778
5	95630	23.31	27.7778
5	96057	23.41	27.7778
[...]
57	127356006	58.048358156082	6
57	129047859	58.154887740068	6
57	135358998	58.554342556398	6
57	140129000	58.855475829316	6
57	141623636	58.949732580176	6
57	144843672	59.152575595509	6
57	152740222	59.651291265605	6
57	154351795	59.753736136301	6
57	160657905	60.151652527115	6
57	162186451	60.24841729176	6
57	163763797	60.347779526995	6
57	166961751	60.549483216044	6
57	173336868	60.952420299256	6
57	176437017	61.148433400362	6
57	179650563	61.352259919871	6
57	181245867	61.452591762489	6
57	184446898	61.654358265702	6
57	185981404	61.750655371286	6
57	189135966	61.949927522647	6
57	190794386	62.054836915976	6
57	193855216	62.248184818478	6
57	198627760	62.54933920108	6
57	200275641	62.653826960533	6
57	203402330	62.851548052204	6
57	208171193	63.152703193926	6
57	209740111	63.25105124868	6
57	212909264	63.451746475867	6
57	214459799	63.548991859166	6
57	216115592	63.654464413731	6
57	219347023	63.858285111411	6
57	220870890	63.954587426608	6
57	224002594	64.15226039898	6
57	225609621	64.25360507905	6
57	231920253	64.652020724127	6
57	233501163	64.75220795836	6
57	235135413	64.855680672295	6
57	236716096	64.955053495514	6
57	238205669	65.04930952222	6
57	239837448	65.152694588241	6
57	241352470	65.247959953912	6
57	243050154	65.355356847485	6
57	246187562	65.553985447429	6
57	247677172	65.647800478554	6
57	250930987	65.854139323446	6
57	252460545	65.950443252577	6
57	255591969	66.148057418104	6
57	266753773	66.852632956022	6
57	268324289	66.95149737878	6
57	271480044	67.151725559085	6
57	274654291	67.351441264279	6
57	284117886	67.949558013325	6
57	287267153	68.149162190232	6
57	288876874	68.25052884651	6
57	290513485	68.355028107474	6
57	292084862	68.453346514945	6
57	296772956	68.750298797808	6
57	299936248	68.949528354566	6
57	304720579	69.252155734491	6
57	307815774	69.447817231016	6
57	309437586	69.550198694604	6
57	314195452	69.851284356811	6
57	315834104	69.954671665249	6
78	856	1.262381747181	6
78	1289	1.362389214172	6
78	1716	1.462383681168	6
78	2146	1.562378148175	6
78	2580	1.662385615206	6
78	3013	1.762380082268	6
78	3436	1.862387549376	6
78	3871	1.962382016547	6
78	4312	2.062389483796	6
78	5166	2.262378418602	6
78	5599	2.362385886197	6
78	6029	2.462380353947	6
78	6459	2.56238782187	6
78	6886	2.662386289967	6
78	7316	2.762380758297	6
78	7734	2.862379226839	6
78	8161	2.962386695657	6
78	8592	3.06238116475	6
78	9019	3.162388634135	6
78	9440	3.262386963032	6
78	9864	3.362381433066	6
78	10297	3.462388903451	6
78	10730	3.562383374208	6
78	11154	3.662377845353	6
78	11587	3.762385316906	6
78	12014	3.862379788886	6
78	12435	3.96238726131	6
78	12866	4.062381734192	6
78	13293	4.162389207553	6
78	13726	4.262383681409	6
78	14156	4.362378155775	6
78	14586	4.462385630668	6
78	15010	4.562383963617	6
78	15431	4.662378439608	6
78	15864	4.762385916169	6
78	16297	4.862380393318	6
78	16724	4.962387871066	6
78	17152	5.062382349429	6
78	17585	5.162389828419	6
78	18018	5.262384308048	6
78	18448	5.36237878833	6
78	18875	5.462386269276	6
78	19299	5.5623807509	6
78	19726	5.662388233211	6
78	20159	5.762382716222	6
78	20586	5.862390199943	6
78	21013	5.962384684386	6
78	21453	6.06237916956	6
78	21883	6.162386655475	6
78	22316	6.262381142141	6
78	23170	6.462383117758	6
78	23600	6.56237760673	6
78	24033	6.662385096489	6
78	24460	6.76237958704	6
78	24881	6.862378078327	6
78	25314	6.962385570489	6
78	25748	7.062380063468	6
78	26175	7.16238755727	6
78	26608	7.262382051901	6
78	27041	7.362389547369	6
78	27474	7.462384043677	6
78	27901	7.562378540833	6
78	28334	7.662386038844	6
78	28764	7.762380537712	6
78	29197	7.862388037444	6
78	29630	7.962382538042	6
78	30070	8.062390039514	6
78	30500	8.162384541864	6
78	30930	8.262379045094	6
78	31363	8.362386549207	6
78	31790	8.46238105421	6
78	32217	8.562379509606	6
78	32650	8.662387016394	6
78	33077	8.76238152408	6
78	33504	8.862389032665	6
78	33931	8.962383542152	6
78	34371	9.062378052544	6
78	34804	9.162385563842	6
78	35237	9.262380076048	6
78	35667	9.362387589165	6
78	36100	9.462382103192	6
78	36963	9.662384133986	6
78	37396	9.762378650755	6
78	37826	9.862386168439	6
78	38256	9.962380687039	6
78	38696	10.062388206554	6
78	39126	10.162382726986	6
78	39556	10.262390248334	6
78	39983	10.362384770599	6
78	40416	10.462379293779	6
78	40837	10.562386817876	6
78	41691	10.762379704255	6
78	42124	10.862387231092	6
78	42545	10.962385705997	6
78	42982	11.062380234657	6
78	43412	11.162387764228	6
78	43842	11.262382294708	6
78	44272	11.362389826093	6
78	44702	11.462384358385	6
78	45129	11.562382786469	6
78	45556	11.662390320565	6
78	46410	11.862379391457	6
78	46837	11.962386928248	6
78	47271	12.062381465932	6
78	47692	12.162389004506	6
78	48125	12.262383543969	6
78	48558	12.362378084318	6
78	48991	12.462385625548	6
78	49418	12.562380167659	6
78	49845	12.662387710647	6
78	50269	12.76238225451	6
78	50699	12.862389799245	6
78	51120	12.962388294794	6
78	51551	13.062382841261	6
78	52396	13.262384936778	6
78	52823	13.362379485822	6
78	53253	13.462387035717	6
78	53686	13.562381586461	6
78	54107	13.662379971357	6
78	54537	13.762387523785	6
78	54970	13.86238207705	6
78	55403	13.96238963115	6
78	55837	14.06238418608	6
78	56270	14.162382567327	6
78	56703	14.262390123903	6
78	57130	14.362384681299	6
78	57563	14.462379239509	6
78	57996	14.562386798528	6
78	58429	14.662381358353	6
78	58862	14.76238891898	6
78	59292	14.862383480403	6
78	59716	14.96237804262	6
78	60153	15.062389428993	6
78	60586	15.162383992785	6
78	61016	15.262378557355	6
78	61867	15.462380688822	6
78	62297	15.562388255708	6
78	62730	15.662382823359	6
78	63157	15.762390391767	6
78	63584	15.862388788719	6
78	64017	15.962383358632	6
78	64454	16.062377929288	6
78	64887	16.162385500686	6
78	65317	16.262380072822	6
78	65747	16.362387645688	6
78	66180	16.462382219282	6
78	66613	16.562389793597	6
78	67046	16.662384368631	6
78	67897	16.862386520833	6
78	68324	16.962384923301	6
78	68758	17.062379501158	6
78	69188	17.162387079712	6
78	69621	17.262381658955	6
78	70054	17.362389238883	6
78	70487	17.462383819491	6
78	70920	17.562378400775	6
78	71353	17.662385982732	6
78	71780	17.762380565354	6
78	72210	17.862388148637	6
78	72643	17.962382732579	6
78	73071	18.062390317173	6
78	73498	18.162384902415	6
78	73928	18.2623794883	6
78	74355	18.362387074826	6
78	74779	18.462381661985	6
78	75209	18.562389249775	6
78	75642	18.662383838188	6
78	76075	18.762378427223	6
78	76502	18.862390016828	6
78	76932	18.96238460709	6
78	77372	19.062379197957	6
78	77805	19.162386789426	6
78	78232	19.262385263818	6
78	78662	19.362379856476	6
78	79092	19.462387449723	6
78	79525	19.562382043555	6
78	79949	19.662389637964	6
78	80382	19.762384232949	6
78	80815	19.862378828502	6
78	81248	19.962386424622	6
78	81682	20.062381021303	6
78	82115	20.162388618538	6
78	82548	20.262383216329	6
78	82960	20.362377814666	6
78	83387	20.46238922754	6
78	83814	20.562387645524	6
78	84244	20.662382245477	6
78	84677	20.76238984596	6
78	85098	20.862384446971	6
78	85525	20.962379048502	6
78	85956	21.062386650552	6
78	86383	21.162385192286	6
78	86813	21.262379795355	6
78	87246	21.362387398931	6
78	87676	21.462382003006	6
78	88536	21.662384212641	6
78	88954	21.762378818193	6
78	89387	21.862386424228	6
78	89808	21.962381030743	6
78	90245	22.062379449873	6
78	90669	22.162387057334	6
78	91102	22.26238166526	6
78	91523	22.36238927365	6
78	91956	22.462383882499	6
78	92389	22.562378491804	6
78	92816	22.662386101559	6
78	93243	22.76238471173	6
78	93667	22.862379322377	6
78	94085	22.962386933463	6
78	94522	23.062381544983	6
78	94955	23.162389156934	6
78	95388	23.262383769313	6
78	96248	23.462385995342	6
78	96681	23.562380608982	6
78	97114	23.662388223035	6
78	97541	23.762382837498	6
78	98392	23.962385067632	6
78	98832	24.062379683299	6
78	99247	24.162378299333	6
78	99668	24.262389729379	6
78	100101	24.362384346217	6
78	100525	24.462378963438	6
78	100958	24.56238658104	6
78	101379	24.662381199019	6
78	101806	24.76238881737	6
78	102236	24.862383436091	6
78	102660	24.962378055178	6
78	103094	25.062385674628	6
78	103521	25.162380294437	6
78	103939	25.262387914601	6
78	104354	25.362386535095	6
78	104781	25.462380965193	6
78	105208	25.562388586406	6
78	105641	25.662383207962	6
78	106074	25.762377829857	6
78	106507	25.862385452089	6
78	106937	25.962380074654	6
78	107798	26.162382320769	6
78	108225	26.262389944314	6
78	108658	26.36238456818	6
78	109091	26.462379192364	6
78	109515	26.562386816861	6
78	109942	26.662381441669	6
78	110790	26.862383692208	6
78	111223	26.962378317934	6
78	111657	27.062389818892	6
78	112090	27.162384445213	6
78	112520	27.262379071828	6
78	112944	27.362386698733	6
78	113798	27.562379761381	6
78	114231	27.662387389141	6
78	114664	27.762382017183	6
78	115088	27.862389645502	6
78	115512	27.962384274093	6
78	115946	28.062378902955	6
78	116373	28.162386532086	6
78	116806	28.262381161485	6
78	117239	28.362388791147	6
78	117672	28.462383421069	6
78	118099	28.562378051252	6
78	118526	28.662389681671	6
78	118956	28.762384312362	6
78	119389	28.862378943303	6
78	119822	28.962386574492	6
78	120262	29.062381205925	6
78	120689	29.162388837602	6
78	121110	29.26238346952	6
78	121543	29.362381908739	6
78	121973	29.462389541131	6
78	122391	29.562384173756	6
78	122824	29.662378806612	6
78	123257	29.762386439698	6
78	123690	29.862381073008	6
78	124117	29.962388706544	6
78	124557	30.062383340302	6
78	124984	30.162377974278	6
78	125414	30.262385608473	6
78	125835	30.362380242884	6
78	126262	30.462387877505	6
78	126695	30.562382512337	6
78	127128	30.66239014738	6
78	127558	30.762384782627	6
78	127988	30.86237941808	6
78	128418	30.962387053734	6
78	128849	31.062381689589	6
78	129282	31.162389325643	6
78	129715	31.262383961891	6
78	130127	31.362382598322	6
78	130560	31.462390234957	6
78	130978	31.562384871782	6
78	131411	31.662379508795	6
78	131844	31.762387145994	6
78	132274	31.862381783377	6
78	132701	31.96238042093	6
78	133141	32.062388058675	6
78	133571	32.162382696598	6
78	133998	32.262390334699	6
78	134425	32.362388908783	6
78	134855	32.46238354723	6
78	135285	32.562378185848	6
78	135712	32.662385824638	6
78	136124	32.762388076912	6
78	136557	32.862382716035	6
78	136990	32.962390355321	6
78	137427	33.06238499477	6
78	137860	33.162379634377	6
78	138287	33.262387274144	6
78	138717	33.362381914068	6
78	139147	33.462389554148	6
78	139577	33.562384194382	6
78	140001	33.662378834769	6
78	140431	33.762386475304	6
78	140864	33.86238111599	6
78	141273	33.962388756824	6
78	141707	34.062383397802	6
78	142128	34.162378038925	6
78	142546	34.262389485719	6
78	142976	34.362384127126	6
78	143394	34.462378768673	6
78	143809	34.562386410359	6
78	144236	34.662381052181	6
78	144669	34.762388694139	6
78	145084	34.86238333623	6
78	145505	34.962377978454	6
78	145942	35.062389426168	6
78	146375	35.162384068652	6
78	146808	35.262378711264	6
78	147232	35.362386354002	6
78	147659	35.462380996866	6
78	148086	35.562388639854	6
78	148504	35.662383282965	6
78	148931	35.762377926196	6
78	149361	35.862385569548	6
78	149788	35.962380213019	6
78	150228	36.062387856609	6
78	150655	36.162382500314	6
78	151088	36.262390144134	6
78	151521	36.362384788068	6
78	151954	36.462379432114	6
78	152381	36.562387076271	6
78	152802	36.662381720538	6
78	153226	36.762389364914	6
78	153653	36.862384009397	6
78	154080	36.962378653988	6
78	154511	37.062386298684	6
78	154944	37.162380943485	6
78	155374	37.262388588388	6
78	155795	37.362383233391	6
78	156228	37.462377878498	6
78	156655	37.562389523697	6
78	157088	37.662384169	6
78	157518	37.7623788144	6
78	157945	37.862386459898	6
78	158369	37.962385105484	6
78	158809	38.062379751172	6
78	159230	38.162387396951	6
78	159663	38.262382042823	6
78	160096	38.362389688788	6
78	160520	38.462384334842	6
78	160950	38.562378980986	6
78	161383	38.662386627218	6
78	161816	38.762381273537	6
78	162246	38.862388919941	6
78	162679	38.96238356643	6
78	163119	39.062378213004	6
78	163534	39.162385859663	6
78	164373	39.362379023793	6
78	164806	39.462386670694	6
78	165239	39.562381317675	6
78	165672	39.662388964735	6
78	166102	39.762383611874	6
78	166962	39.962385906383	6
78	167399	40.062380553751	6
78	167832	40.162388201192	6
78	168265	40.262382848708	6
78	168698	40.362390496297	6
78	169131	40.462385143958	6
78	169561	40.56237979169	6
78	169991	40.662387439493	6
78	170842	40.862380605664	6
78	171272	40.962388253674	6
78	172136	41.162390549894	6
78	172569	41.262385198103	6
78	173002	41.362379846379	6
78	173435	41.462387494718	6
78	173862	41.562382143121	6
78	174292	41.662389791587	6
78	174722	41.762384440116	6
78	175155	41.862379088707	6
78	175585	41.962386737358	6
78	176019	42.062381386068	6
78	176434	42.162379969798	6
78	176867	42.262387618627	6
78	177288	42.362382267514	6
78	177718	42.462389916459	6
78	178148	42.562384565461	6
78	178581	42.662379214519	6
78	179008	42.762386863632	6
78	179435	42.8623815128	6
78	179853	42.962389162023	6
78	180284	43.062383811298	6
78	180717	43.162378460627	6
78	181129	43.262386110009	6
78	181562	43.362380759445	6
78	181995	43.462388408931	6
78	182428	43.562383058466	6
78	182861	43.66237770805	6
78	183288	43.762385357683	6
78	183718	43.862380007367	6
78	184136	43.962387657102	6
78	184573	44.062382306882	6
78	185000	44.16238995671	6
78	185427	44.262384606585	6
78	185860	44.362379256505	6
78	186290	44.462386906472	6
78	187141	44.662380141403	6
78	187559	44.762387791505	6
78	187986	44.862382441649	6
78	188407	44.962390091836	6
78	188835	45.062384742066	6
78	189262	45.162379392338	6
78	189689	45.262377978331	6
78	190122	45.362385628685	6
78	190552	45.46238027908	6
78	190985	45.562387929515	6
78	191418	45.662382579992	6
78	192266	45.862384881059	6
78	192696	45.962379531653	6
78	193124	46.062387182283	6
78	193542	46.16238183295	6
78	193975	46.262389483655	6
78	194405	46.362384134397	6
78	194838	46.462378785175	6
78	195265	46.562390435986	6
78	195692	46.662385086837	6
78	196116	46.762383542196	6
78	196546	46.862378193115	6
78	196979	46.962385844068	6
78	197407	47.062380495055	6
78	197834	47.162388146075	6
78	198267	47.262382797129	6
78	198697	47.362390448214	6
78	199115	47.46238909933	6
78	199542	47.562383750479	6
78	199972	47.662378401659	6
78	200399	47.762386052871	6
78	200832	47.862380704114	6
78	201265	47.962388355389	6
78	201705	48.062383006692	6
78	202138	48.162377658026	6
78	202571	48.26238530939	6
78	203004	48.362379960782	6
78	203431	48.462387612203	6
78	203864	48.562382263652	6
78	204285	48.662380915127	6
78	204712	48.762388566631	6
78	205139	48.862383218163	6
78	205560	48.962377869721	6
78	206000	49.062385521306	6
78	206433	49.162380172918	6
78	206863	49.262387824557	6
78	207296	49.362382476221	6
78	207720	49.462390127912	6
78	208135	49.562384779629	6
78	208562	49.662379431367	6
78	208983	49.762387083132	6
78	209837	49.962389386733	6
78	12101214	50.765177183962	6
78	16939967	51.071418010956	6
78	18414154	51.163571936952	6
78	26307330	51.662392033105	6
78	29578348	51.868835359479	6
78	39028478	52.465444209003	6
78	42201593	52.66623665617	6
78	46969286	52.967297354426	6
78	50059422	53.162526681124	6
78	59541779	53.762965280524	6
78	64336385	54.064731181426	6
78	75423643	54.766890323883	6
78	77094499	54.872463135495	6
78	84885175	55.36533337332	6
78	86437201	55.462388591567	6
78	99104186	56.262575848441	6
78	100697482	56.362912538037	6
78	103868936	56.563323623659	6
78	105439902	56.663023593537	6
78	107025938	56.762396512572	6
78	108628709	56.863824092141	6
78	113360497	57.163389100117	6
78	121261970	57.662633085685	6
78	126123699	57.970567776743	6
78	135516335	58.563088623418	6
78	137090103	58.663903873385	6
78	143414543	59.062423364933	6
78	146688370	59.269307541492	6
78	154578707	59.768078177347	6
78	159252370	60.062983210254	6
78	162469198	60.265833490072	6
78	171992054	60.86786401191	6
78	179952101	61.370700535379	6
78	184712576	61.670749518725	6
78	200426712	62.663048620491	6
78	211519783	63.363694811762	6
78	232107424	64.662913449747	6
78	235257927	64.862395566754	6
78	238515940	65.06831763748	6
78	249575815	65.768102913638	6
78	260579808	66.462385224715	6
78	265399359	66.766648765054	6
78	281198459	67.765148078948	6
78	297009771	68.764294927074	6
78	308085341	69.464174522214	6
78	316094164	69.971064705297	6
112	4060	2	0
112	8349	3	0
112	12620	4	0
112	16906	5	0
112	21201	6	0
112	25502	7	0
112	29818	8	0
112	34119	9	0
112	38444	10	0
112	42730	11	0
112	47025	12	0
112	51302	13	0
112	55591	14	0
112	59904	15	0
112	64202	16	0
112	68509	17	0
112	72831	18	0
112	77120	19	0
112	81436	20	0
112	85710	21	0
112	89996	22	0
112	94273	23	0
112	98580	24	0
112	102842	25	0
112	107125	26	0
112	111405	27	0
112	115694	28	0
112	120010	29	0
112	124305	30	0
112	128600	31	0
112	132889	32	0
112	137178	33	0
112	141461	34	0
112	145693	35	0
112	149976	36	0
112	154262	37	0
112	158557	38	0
112	162867	39	0
112	167147	40	0
112	171460	41	0
112	175773	42	0
112	180041	43	0
112	184321	44	0
112	188595	45	0
112	192875	46	0
112	197164	47	0
112	201453	48	0
112	205748	49	0
112	210026	50	0
112	15808957	51	0
112	31663446	52	0
112	47481058	53	0
112	63298901	54	0
112	79120465	55	0
112	94950703	56	0
112	110778504	57	0
112	126599240	58	0
112	142428438	59	0
112	158254463	60	0
112	174086700	61	0
112	189925406	62	0
112	205764236	63	0
112	221594180	64	0
112	237436463	65	0
112	253253136	66	0
112	269097823	67	0
112	284920280	68	0
112	300728275	69	0
112	316555953	70	0
111	4060	2	0.030761
111	8349	3	0.03473
111	12620	4	0.033738
111	16906	5	0.034234
111	21201	6	0.03473
111	25502	7	0.03473
111	29818	8	0.03473
111	34119	9	0.034234
111	38444	10	0.03473
111	42730	11	0.03473
111	47025	12	0.034234
111	51302	13	0.033738
111	55591	14	0.033738
111	59904	15	0.034234
111	64202	16	0.034234
111	68509	17	0.034234
111	72831	18	0.03473
111	77120	19	0.03473
111	81436	20	0.03473
111	85710	21	0.034234
111	89996	22	0.034234
111	94273	23	0.03473
111	98580	24	0.033242
111	102842	25	0.033242
111	107125	26	0.03473
111	111405	27	0.033738
111	115694	28	0.034234
111	120010	29	0.03473
111	124305	30	0.03473
111	128600	31	0.03473
111	132889	32	0.03473
111	137178	33	0.033738
111	141461	34	0.033738
111	145693	35	0.033738
111	149976	36	0.034234
111	154262	37	0.03473
111	158557	38	0.034234
111	162867	39	0.03473
111	167147	40	0.033242
111	171460	41	0.034234
111	175773	42	0.034234
111	180041	43	0.034234
111	184321	44	0.033738
111	188595	45	0.033738
111	192875	46	0.034234
111	197164	47	0.033242
111	201453	48	0.034234
111	205748	49	0.03473
111	210026	50	0.033738
111	15808957	51	0.908391176056
111	31663446	52	0.916768149095
111	47481058	53	0.917737115345
111	63298901	54	0.919882249987
111	79120465	55	0.921309581318
111	94950703	56	0.915548373802
111	110778504	57	0.916912139464
111	126599240	58	0.919685558066
111	142428438	59	0.919952187928
111	158254463	60	0.919471125048
111	174086700	61	0.917530250731
111	189925406	62	0.91272194948
111	205764236	63	0.917890762706
111	221594180	64	0.92125146795
111	237436463	65	0.916310716282
111	253253136	66	0.919584783929
111	269097823	67	0.921202074413
111	284920280	68	0.92060061174
111	300728275	69	0.918113682219
111	316555953	70	0.918354092467
110	4060	2	6
110	8349	3	6
110	12620	4	6
110	16906	5	6
110	21201	6	6
110	25502	7	6
110	29818	8	6
110	34119	9	6
110	38444	10	6
110	42730	11	6
110	47025	12	6
110	51302	13	6
110	55591	14	6
110	59904	15	6
110	64202	16	6
110	68509	17	6
110	72831	18	6
110	77120	19	6
110	81436	20	6
110	85710	21	6
110	89996	22	6
110	94273	23	6
110	98580	24	6
110	102842	25	6
110	107125	26	6
110	111405	27	6
110	115694	28	6
110	120010	29	6
110	124305	30	6
110	128600	31	6
110	132889	32	6
110	137178	33	6
110	141461	34	6
110	145693	35	6
110	149976	36	6
110	154262	37	6
110	158557	38	6
110	162867	39	6
110	167147	40	6
110	171460	41	6
110	175773	42	6
110	180041	43	6
110	184321	44	6
110	188595	45	6
110	192875	46	6
110	197164	47	6
110	201453	48	6
110	205748	49	6
110	210026	50	6
110	15808957	51	6
110	31663446	52	6
110	47481058	53	6
110	63298901	54	6
110	79120465	55	6
110	94950703	56	6
110	110778504	57	6
110	126599240	58	6
110	142428438	59	6
110	158254463	60	6
110	174086700	61	6
110	189925406	62	6
110	205764236	63	6
110	221594180	64	6
110	237436463	65	6
110	253253136	66	6
110	269097823	67	6
110	284920280	68	6
110	300728275	69	6
110	316555953	70	6

