version 2
run NBCACC8mpsConf2-4-20210127-04:45:18-27113
attr configname NBCACC8mpsConf2
attr datetime 20210127-04:45:18
attr experiment NBCACC8mpsConf2
attr inifile CEBModule.ini
attr iterationvars "$nCars=7, $platoonSize=7, $nLanes=1, $humanCars=400, $humanLanes=3, $caccSpacing=3.0, $ploegH=0.5, $leaderHeadway=1.2, $leaderSpeed=100, $beaconInterval=0.1, $priority=4, $packetSize=200"
attr iterationvarsf nCars=7,platoonSize=7,nLanes=1,humanCars=400,humanLanes=3,caccSpacing=3.0,ploegH=0.5,leaderHeadway=1.2,leaderSpeed=100,beaconInterval=0.1,priority=4,packetSize=200-
attr measurement "$nCars=7, $platoonSize=7, $nLanes=1, $humanCars=400, $humanLanes=3, $caccSpacing=3.0, $ploegH=0.5, $leaderHeadway=1.2, $leaderSpeed=100, $beaconInterval=0.1, $priority=4, $packetSize=200"
attr network Highway
attr processid 27113
attr repetition 4
attr replication #4
attr resultdir results
attr runnumber 4
attr seedset 4
itervar beaconInterval 0.1
itervar caccSpacing 3.0
itervar humanCars 400
itervar humanLanes 3
itervar leaderHeadway 1.2
itervar leaderSpeed 100
itervar nCars 7
itervar nLanes 1
itervar packetSize 200
itervar platoonSize 7
itervar ploegH 0.5
itervar priority 4
param *.manager.useGui false
param *.node[*].scenario_type "\"BrakingScenario\""
param *.node[*].prot.isRelayEnabled true
param *.node[*].runtimeManager.rmEnabled false
param *.node[*].prot.isCoopEmBrkEnabled true
param *.node[*].prot.isNBEnabled true
param *.node[*].prot.decelarationRate "8 mpsps"
param *.node[*].prot.brakeAtTime 60s
param *.node[*].prot.speedOfLeader 100kmph
param *.node[*].prot.DENMInterval 0.1s
param *.node[*].scenario.leaderOscillationFrequency "0.2 Hz"
param *.playgroundSizeX 65000m
param *.playgroundSizeY 25000m
param *.playgroundSizeZ 50m
param **.debug false
param **.coreDebug false
param *.annotations.draw false
param *.obstacles.debug false
param *.world.useTorus false
param *.world.use2D false
param *.manager.updateInterval 0.01s
param *.manager.host "\"localhost\""
param *.manager.moduleType "\"vtypeauto=org.car2x.veins.modules.application.platooning.PlatoonCar vtypehuman=HumanCar\""
param *.manager.moduleName "\"vtypeauto=node vtypehuman=human\""
param *.manager.moduleDisplayString "\"\""
param *.manager.autoShutdown true
param *.manager.margin 25
param *.connectionManager.sendDirect true
param *.connectionManager.maxInterfDist 2600m
param *.connectionManager.drawMaxIntfDist false
param *.**.nic.mac1609_4.useServiceChannel false
param *.**.nic.mac1609_4.txPower 100mW
param *.**.nic.mac1609_4.bitrate 6Mbps
param *.**.nic.phy80211p.sensitivity -94dBm
param *.**.nic.phy80211p.maxTXPower 100mW
param *.**.nic.phy80211p.useThermalNoise true
param *.**.nic.phy80211p.thermalNoise -95dBm
param *.**.nic.phy80211p.decider "xmldoc(\"config.xml\")"
param *.**.nic.phy80211p.analogueModels "xmldoc(\"config.xml\")"
param *.**.nic.phy80211p.usePropagationDelay true
param *.node[*].mobility.x 0
param *.node[*].mobility.y 0
param *.node[*].mobility.z 1.895
param *.human[*].mobility.x 0
param *.human[*].mobility.y 0
param *.human[*].mobility.z 1.895
param **.seed 4
param *.manager.configFile "\"./sumocfg/freeway.sumo.cfg\""
param *.node[*].scenario.vehicleFile "\"./sumocfg/vehicles.xml\""
param **.numberOfCars 7
param **.numberOfCarsPerPlatoon 7
param **.numberOfLanes 1
param **.numberOfHumanCars 400
param **.numberOfHumanLanes 3
param *.node[*].helper_type "\"PositionHelper\""
param *.node[*].helper.nLanes 1
param *.node[*].helper.platoonSize 7
param *.node[*].helper.nCars 7
param *.node[*].scenario.caccSpacing 3.0m
param *.node[*].scenario.caccC1 0.5
param *.node[*].scenario.caccXi 1
param *.node[*].scenario.caccOmegaN "0.2 Hz"
param *.node[*].scenario.engineTau "0.5 s"
param *.node[*].scenario.ploegH 0.5s
param *.node[*].scenario.ploegKp 0.2
param *.node[*].scenario.ploegKd 0.7
param *.node[*].scenario.useRealisticEngine false
param **.numericController 1
param *.node[*].scenario.controller "\"CACC\""
param **.headway 0.5s
param *.node[*].scenario.accHeadway 0.5s
param *.node[*].scenario.leaderHeadway 1.2s
param *.node[*].scenario.leaderSpeed 100kmph
param *.node[*].appl_type "\"SimplePlatooningApp\""
param *.node[*].protocol_type "\"SimplePlatooningBeaconing\""
param *.node[*].prot.beaconingInterval 0.1s
param *.node[*].prot.priority 4
param *.node[*].prot.packetSize 200
param *.node[*].prot.ackPacketSize 50
param *.node[*].prot.useControllerAcceleration true
param *.node[*].unicast.packetLossRate 0.0
param *.human[*].prot.beaconingInterval ".02 s"
param *.human[*].prot.priority 4
param *.human[*].prot.packetSize 200
param *.human[*].prot.txPower "100 mW"
param *.human[*].prot.bitrate "3 Mbps"
param **.traffic_type "\"PlatoonsPlusHumanTraffic\""
param **.traffic.platoonInsertTime "1 s"
param **.traffic.humanInsertTime "50 s"
param **.traffic.platoonInsertSpeed 100kmph
param **.traffic.nCars 7
param **.traffic.humanCars 400
param **.traffic.platoonSize 7
param **.traffic.nLanes 1
param **.traffic.humanLanes 3
param **.traffic.platooningVType "\"vtypeauto\""
param **.traffic.humanVType "\"vtypehuman\""
param **.traffic.platoonInsertDistance 3.0m
param **.traffic.platoonInsertHeadway 0s
param **.traffic.platoonLeaderHeadway 1.2s

vector 0 Highway.node[0].appl distance ETV
vector 1 Highway.node[0].appl relativeSpeed ETV
vector 2 Highway.node[0].appl nodeId ETV
vector 3 Highway.node[0].appl acceleration ETV
vector 4 Highway.node[0].appl controllerAcceleration ETV
vector 5 Highway.node[0].appl speed ETV
vector 6 Highway.node[0].appl posx ETV
vector 7 Highway.node[0].appl posy ETV
vector 8 Highway.node[1].appl distance ETV
vector 9 Highway.node[1].appl relativeSpeed ETV
vector 10 Highway.node[1].appl nodeId ETV
vector 11 Highway.node[1].appl acceleration ETV
vector 12 Highway.node[1].appl controllerAcceleration ETV
vector 13 Highway.node[1].appl speed ETV
vector 14 Highway.node[1].appl posx ETV
vector 15 Highway.node[1].appl posy ETV
vector 16 Highway.node[2].appl distance ETV
vector 17 Highway.node[2].appl relativeSpeed ETV
vector 18 Highway.node[2].appl nodeId ETV
vector 19 Highway.node[2].appl acceleration ETV
vector 20 Highway.node[2].appl controllerAcceleration ETV
vector 21 Highway.node[2].appl speed ETV
vector 22 Highway.node[2].appl posx ETV
vector 23 Highway.node[2].appl posy ETV
vector 24 Highway.node[3].appl distance ETV
vector 25 Highway.node[3].appl relativeSpeed ETV
vector 26 Highway.node[3].appl nodeId ETV
vector 27 Highway.node[3].appl acceleration ETV
vector 28 Highway.node[3].appl controllerAcceleration ETV
vector 29 Highway.node[3].appl speed ETV
vector 30 Highway.node[3].appl posx ETV
vector 31 Highway.node[3].appl posy ETV
vector 32 Highway.node[4].appl distance ETV
vector 33 Highway.node[4].appl relativeSpeed ETV
vector 34 Highway.node[4].appl nodeId ETV
vector 35 Highway.node[4].appl acceleration ETV
vector 36 Highway.node[4].appl controllerAcceleration ETV
vector 37 Highway.node[4].appl speed ETV
vector 38 Highway.node[4].appl posx ETV
vector 39 Highway.node[4].appl posy ETV
vector 40 Highway.node[5].appl distance ETV
vector 41 Highway.node[5].appl relativeSpeed ETV
vector 42 Highway.node[5].appl nodeId ETV
vector 43 Highway.node[5].appl acceleration ETV
vector 44 Highway.node[5].appl controllerAcceleration ETV
vector 45 Highway.node[5].appl speed ETV
vector 46 Highway.node[5].appl posx ETV
vector 47 Highway.node[5].appl posy ETV
vector 48 Highway.node[6].appl distance ETV
vector 49 Highway.node[6].appl relativeSpeed ETV
vector 50 Highway.node[6].appl nodeId ETV
vector 51 Highway.node[6].appl acceleration ETV
vector 52 Highway.node[6].appl controllerAcceleration ETV
vector 53 Highway.node[6].appl speed ETV
vector 54 Highway.node[6].appl posx ETV
vector 55 Highway.node[6].appl posy ETV
vector 56 Highway.node[4].prot frontDelay ETV
vector 57 Highway.node[4].prot frontDelayId ETV
vector 58 Highway.node[4].prot frontTransmissionN ETV
vector 59 Highway.node[1].prot leaderDelay ETV
vector 60 Highway.node[1].prot leaderDelayId ETV
vector 61 Highway.node[1].prot leaderTransmissionN ETV
vector 62 Highway.node[1].prot frontDelay ETV
vector 63 Highway.node[1].prot frontDelayId ETV
vector 64 Highway.node[1].prot frontTransmissionN ETV
vector 65 Highway.node[2].prot leaderDelay ETV
vector 66 Highway.node[2].prot leaderDelayId ETV
vector 67 Highway.node[2].prot leaderTransmissionN ETV
vector 68 Highway.node[3].prot leaderDelay ETV
vector 69 Highway.node[3].prot leaderDelayId ETV
vector 70 Highway.node[3].prot leaderTransmissionN ETV
vector 71 Highway.node[4].prot leaderDelay ETV
vector 72 Highway.node[4].prot leaderDelayId ETV
vector 73 Highway.node[4].prot leaderTransmissionN ETV
vector 74 Highway.node[5].prot leaderDelay ETV
vector 75 Highway.node[5].prot leaderDelayId ETV
vector 76 Highway.node[5].prot leaderTransmissionN ETV
vector 77 Highway.node[6].prot leaderDelay ETV
vector 78 Highway.node[6].prot leaderDelayId ETV
vector 79 Highway.node[6].prot leaderTransmissionN ETV
vector 80 Highway.node[3].prot frontDelay ETV
vector 81 Highway.node[3].prot frontDelayId ETV
vector 82 Highway.node[3].prot frontTransmissionN ETV
vector 83 Highway.node[6].prot frontDelay ETV
vector 84 Highway.node[6].prot frontDelayId ETV
vector 85 Highway.node[6].prot frontTransmissionN ETV
vector 86 Highway.node[2].prot frontDelay ETV
vector 87 Highway.node[2].prot frontDelayId ETV
vector 88 Highway.node[2].prot frontTransmissionN ETV
vector 89 Highway.node[5].prot frontDelay ETV
vector 90 Highway.node[5].prot frontDelayId ETV
vector 91 Highway.node[5].prot frontTransmissionN ETV
vector 92 Highway.node[0].prot nodeId ETV
vector 93 Highway.node[0].prot busyTime ETV
vector 94 Highway.node[0].prot collisions ETV
vector 95 Highway.node[1].prot nodeId ETV
vector 96 Highway.node[1].prot busyTime ETV
vector 97 Highway.node[1].prot collisions ETV
vector 98 Highway.node[2].prot nodeId ETV
vector 99 Highway.node[2].prot busyTime ETV
vector 100 Highway.node[2].prot collisions ETV
vector 101 Highway.node[3].prot nodeId ETV
vector 102 Highway.node[3].prot busyTime ETV
vector 103 Highway.node[3].prot collisions ETV
vector 104 Highway.node[4].prot nodeId ETV
vector 105 Highway.node[4].prot busyTime ETV
vector 106 Highway.node[4].prot collisions ETV
vector 107 Highway.node[5].prot nodeId ETV
vector 108 Highway.node[5].prot busyTime ETV
vector 109 Highway.node[5].prot collisions ETV
vector 110 Highway.node[6].prot nodeId ETV
vector 111 Highway.node[6].prot busyTime ETV
vector 112 Highway.node[6].prot collisions ETV
vector 113 Highway.node[1].prot firstDENMDelay ETV
vector 114 Highway.node[1].prot noOfRetransmissions ETV
vector 115 Highway.node[2].prot firstDENMDelay ETV
vector 116 Highway.node[2].prot noOfRetransmissions ETV
vector 117 Highway.node[4].prot firstDENMDelay ETV
vector 118 Highway.node[4].prot noOfRetransmissions ETV
vector 119 Highway.node[6].prot firstDENMDelay ETV
vector 120 Highway.node[6].prot noOfRetransmissions ETV
vector 121 Highway.node[3].prot firstDENMDelay ETV
vector 122 Highway.node[3].prot noOfRetransmissions ETV
vector 123 Highway.node[5].prot firstDENMDelay ETV
vector 124 Highway.node[5].prot noOfRetransmissions ETV
vector 125 Highway.node[0].prot firstDENMDelay ETV
vector 126 Highway.node[0].prot noOfRetransmissions ETV
4	232	1.11	-0.00218518
4	666	1.21	-0.00213419
4	1097	1.31	-0.00205408
4	1530	1.41	-0.00195152
4	1964	1.51	-0.00183238
4	2398	1.61	-0.00170178
4	2826	1.71	-0.00156412
4	3250	1.81	-0.00142314
4	3684	1.91	-0.00128196
4	4112	2.01	-0.00114315
4	4530	2.11	-0.00100877
4	4951	2.21	-0.000880447
4	5381	2.31	-0.000759381
4	5814	2.41	-0.000646445
4	6241	2.51	-0.000542204
4	6671	2.61	-0.000446965
4	7089	2.71	-0.000360819
4	7522	2.81	-0.000283678
4	7955	2.91	-0.000215307
4	8386	3.01	-0.000155357
4	8816	3.11	-0.000103391
4	9240	3.21	-5.89069e-05
4	9667	3.31	-2.13575e-05
4	10094	3.41	9.82919e-06
4	10524	3.51	3.52368e-05
4	10957	3.61	5.54479e-05
4	11390	3.71	7.10335e-05
4	11823	3.81	8.25451e-05
4	12253	3.91	9.05081e-05
4	12681	4.01	9.54172e-05
4	13105	4.11	9.7733e-05
4	13526	4.21	9.78798e-05
4	13956	4.31	9.62447e-05
4	14377	4.41	9.31771e-05
4	14804	4.51	8.89894e-05
4	15237	4.61	8.39579e-05
4	15664	4.71	7.83245e-05
4	16097	4.81	7.22983e-05
4	16527	4.91	6.6058e-05
4	16961	5.01	5.9754e-05
4	17394	5.11	5.35107e-05
4	17827	5.21	4.74294e-05
4	18251	5.31	4.15898e-05
4	18684	5.41	3.60534e-05
4	19111	5.51	3.0865e-05
4	19544	5.61	2.60551e-05
4	19968	5.71	2.16419e-05
4	20395	5.81	1.76335e-05
4	20822	5.91	1.40289e-05
4	21256	6.01	1.08202e-05
4	21686	6.11	7.99392e-06
4	22113	6.21	5.532e-06
4	22543	6.31	3.41315e-06
4	22967	6.41	1.61374e-06
4	23391	6.51	1.08654e-07
4	23818	6.61	-1.12799e-06
4	24251	6.71	-2.12224e-06
4	24684	6.81	-2.89981e-06
4	25111	6.91	-3.48567e-06
4	25551	7.01	-3.90376e-06
4	25984	7.11	-4.17673e-06
4	26399	7.21	-4.32574e-06
4	26829	7.31	-4.3704e-06
4	27262	7.41	-4.32865e-06
4	27692	7.51	-4.21676e-06
4	28119	7.61	-4.04934e-06
4	28552	7.71	-3.83937e-06
4	28976	7.81	-3.59826e-06
4	29397	7.91	-3.33592e-06
4	29837	8.01	-3.06089e-06
4	30270	8.11	-2.78036e-06
4	30703	8.21	-2.50036e-06
4	31133	8.31	-2.22582e-06
4	31560	8.41	-1.96068e-06
4	31993	8.51	-1.708e-06
4	32417	8.61	-1.47009e-06
4	32850	8.71	-1.24855e-06
4	33274	8.81	-1.04441e-06
4	33704	8.91	-8.58219e-07
4	34132	9.01	-6.90082e-07
4	34565	9.11	-5.39774e-07
4	34986	9.21	-4.06787e-07
4	35419	9.31	-2.90396e-07
4	35846	9.41	-1.89707e-07
4	36267	9.51	-1.03704e-07
4	36694	9.61	-3.12909e-08
4	37127	9.71	2.86736e-08
4	37557	9.81	7.73515e-08
4	37990	9.91	1.15897e-07
4	38427	10.01	1.45439e-07
4	38860	10.11	1.67065e-07
4	39293	10.21	1.81809e-07
4	39720	10.31	1.90644e-07
4	40153	10.41	1.94472e-07
4	40577	10.51	1.94125e-07
4	41001	10.61	1.90358e-07
4	41434	10.71	1.83853e-07
4	41861	10.81	1.75219e-07
4	42291	10.91	1.64994e-07
4	42731	11.01	1.53647e-07
4	43164	11.11	1.41582e-07
4	43597	11.21	1.29146e-07
4	44030	11.31	1.16627e-07
4	44463	11.41	1.04266e-07
4	44887	11.51	9.22547e-08
4	45320	11.61	8.07471e-08
4	45753	11.71	6.98584e-08
4	46180	11.81	5.96732e-08
4	46613	11.91	5.02471e-08
4	47050	12.01	4.16133e-08
4	47483	12.11	3.37845e-08
4	47910	12.21	2.67558e-08
4	48340	12.31	2.05102e-08
4	48764	12.41	1.50187e-08
4	49191	12.51	1.02442e-08
4	49624	12.61	6.14406e-09
4	50051	12.71	2.67022e-09
4	50472	12.81	-2.27374e-10
4	50905	12.91	-2.60059e-09
4	51342	13.01	-4.50058e-09
4	51772	13.11	-5.97851e-09
4	52187	13.21	-7.08376e-09
4	52614	13.31	-7.86322e-09
4	53047	13.41	-8.36167e-09
4	53471	13.51	-8.62066e-09
4	53904	13.61	-8.67857e-09
4	54337	13.71	-8.57057e-09
4	54770	13.81	-8.32792e-09
4	55203	13.91	-7.97975e-09
4	55643	14.01	-7.55058e-09
4	56058	14.11	-7.06351e-09
4	56491	14.21	-6.53699e-09
4	56918	14.31	-5.98774e-09
4	57351	14.41	-5.42997e-09
4	57778	14.51	-4.87468e-09
4	58193	14.61	-4.33182e-09
4	58617	14.71	-3.80886e-09
4	59038	14.81	-3.31148e-09
4	59468	14.91	-2.84395e-09
4	59890	15.01	-2.40981e-09
4	60323	15.11	-2.01013e-09
4	60756	15.21	-1.64633e-09
4	61183	15.31	-1.31806e-09
4	61607	15.41	-1.02531e-09
4	62040	15.51	-7.66676e-10
4	62473	15.61	-5.40723e-10
4	62900	15.71	-3.46034e-10
4	63321	15.81	-1.79767e-10
4	63754	15.91	-4.01457e-11
4	64194	16.01	7.49623e-11
4	64621	16.11	1.68043e-10
4	65054	16.21	2.41585e-10
4	65478	16.31	2.97362e-10
4	65905	16.41	3.37863e-10
4	66332	16.51	3.64864e-10
4	66765	16.61	3.80851e-10
4	67186	16.71	3.86891e-10
4	67616	16.81	3.84759e-10
4	68037	16.91	3.76232e-10
4	68468	17.01	3.62377e-10
4	68895	17.11	3.44613e-10
4	69322	17.21	3.24007e-10
4	69755	17.31	3.00915e-10
4	70188	17.41	2.76756e-10
4	70618	17.51	2.52243e-10
4	71042	17.61	2.27374e-10
4	71475	17.71	2.0286e-10
4	71908	17.81	1.79057e-10
4	72329	17.91	1.56319e-10
4	72769	18.01	1.35003e-10
4	73202	18.11	1.15108e-10
4	73629	18.21	9.66338e-11
4	74053	18.31	7.99361e-11
4	74486	18.41	6.46594e-11
4	74913	18.51	5.08038e-11
4	75346	18.61	3.83693e-11
4	75779	18.71	2.73559e-11
4	76212	18.81	1.77636e-11
4	76645	18.91	9.59233e-12
4	77067	19.01	2.84217e-12
4	77500	19.11	-2.84217e-12
4	77933	19.21	-7.4607e-12
4	78366	19.31	-1.13687e-11
4	78799	19.41	-1.42109e-11
4	79232	19.51	-1.63425e-11
4	79656	19.61	-1.77636e-11
4	80074	19.71	-1.84741e-11
4	80501	19.81	-1.88294e-11
4	80928	19.91	-1.88294e-11
4	81368	20.01	-1.88294e-11
4	81801	20.11	-1.81188e-11
4	82234	20.21	-1.7053e-11
4	82664	20.31	-1.63425e-11
4	83091	20.41	-1.52767e-11
4	83518	20.51	-1.45661e-11
4	83945	20.61	-1.35003e-11
4	84372	20.71	-1.27898e-11
4	84799	20.81	-1.1724e-11
4	85214	20.91	-1.10134e-11
4	85654	21.01	-9.9476e-12
4	86087	21.11	-9.23706e-12
4	86517	21.21	-8.17124e-12
4	86950	21.31	-7.4607e-12
4	87383	21.41	-6.39488e-12
4	87810	21.51	-5.68434e-12
4	88243	21.61	-4.61853e-12
4	88667	21.71	-3.90799e-12
4	89097	21.81	-2.84217e-12
4	89527	21.91	-2.13163e-12
4	89958	22.01	-1.06581e-12
4	90379	22.11	-3.55271e-13
4	90806	22.21	7.10543e-13
4	91239	22.31	1.42109e-12
4	91666	22.41	2.13163e-12
4	92093	22.51	2.84217e-12
4	92520	22.61	3.19744e-12
4	92944	22.71	3.90799e-12
4	93362	22.81	4.26326e-12
4	93795	22.91	4.61853e-12
4	94223	23.01	5.32907e-12
4	94650	23.11	5.68434e-12
4	95077	23.21	5.68434e-12
4	95510	23.31	6.03961e-12
4	95940	23.41	6.39488e-12
4	96370	23.51	6.75016e-12
4	96797	23.61	6.75016e-12
4	97224	23.71	7.10543e-12
4	97657	23.81	7.10543e-12
4	98090	23.91	7.4607e-12
4	98524	24.01	7.4607e-12
4	98957	24.11	7.81597e-12
4	99387	24.21	7.81597e-12
4	99817	24.31	7.81597e-12
4	100247	24.41	7.81597e-12
4	100665	24.51	8.17124e-12
4	101083	24.61	8.17124e-12
4	101513	24.71	8.17124e-12
4	101946	24.81	8.17124e-12
4	102373	24.91	8.17124e-12
4	102807	25.01	8.52651e-12
4	103237	25.11	8.52651e-12
4	103643	25.21	8.52651e-12
4	104067	25.31	8.52651e-12
4	104500	25.41	8.52651e-12
4	104933	25.51	8.52651e-12
4	105363	25.61	8.52651e-12
4	105796	25.71	8.52651e-12
4	106229	25.81	8.52651e-12
4	106659	25.91	8.52651e-12
4	107093	26.01	8.88178e-12
4	107523	26.11	8.88178e-12
4	107944	26.21	8.88178e-12
4	108374	26.31	8.88178e-12
4	108804	26.41	8.88178e-12
4	109228	26.51	8.88178e-12
4	109655	26.61	8.88178e-12
4	110082	26.71	8.88178e-12
4	110506	26.81	8.88178e-12
4	110939	26.91	8.88178e-12
4	111379	27.01	8.88178e-12
4	111806	27.11	8.88178e-12
4	112227	27.21	8.88178e-12
4	112660	27.31	8.88178e-12
4	113087	27.41	8.88178e-12
4	113511	27.51	8.88178e-12
4	113938	27.61	8.88178e-12
4	114371	27.71	8.88178e-12
4	114792	27.81	8.88178e-12
4	115225	27.91	8.88178e-12
4	115665	28.01	8.88178e-12
4	116095	28.11	8.88178e-12
4	116522	28.21	8.88178e-12
4	116955	28.31	8.88178e-12
4	117388	28.41	8.88178e-12
4	117812	28.51	8.88178e-12
4	118245	28.61	8.88178e-12
4	118675	28.71	8.88178e-12
4	119102	28.81	8.88178e-12
4	119535	28.91	8.88178e-12
4	119975	29.01	8.88178e-12
4	120408	29.11	8.88178e-12
4	120841	29.21	8.88178e-12
4	121262	29.31	8.88178e-12
4	121686	29.41	8.88178e-12
4	122119	29.51	8.88178e-12
4	122546	29.61	8.88178e-12
4	122970	29.71	8.88178e-12
4	123400	29.81	8.88178e-12
4	123833	29.91	8.88178e-12
4	124264	30.01	8.88178e-12
4	124679	30.11	8.88178e-12
4	125106	30.21	8.88178e-12
4	125539	30.31	8.88178e-12
4	125951	30.41	8.88178e-12
4	126369	30.51	8.88178e-12
4	126799	30.61	8.88178e-12
4	127220	30.71	8.88178e-12
4	127635	30.81	8.88178e-12
4	128059	30.91	8.88178e-12
4	128493	31.01	8.88178e-12
4	128926	31.11	8.88178e-12
4	129359	31.21	8.88178e-12
4	129780	31.31	8.88178e-12
4	130201	31.41	8.88178e-12
4	130634	31.51	8.88178e-12
4	131055	31.61	8.88178e-12
4	131482	31.71	8.88178e-12
4	131903	31.81	8.88178e-12
4	132330	31.91	8.88178e-12
4	132758	32.01	8.88178e-12
4	133179	32.11	8.88178e-12
4	133612	32.21	8.88178e-12
4	134042	32.31	8.88178e-12
4	134469	32.41	8.88178e-12
4	134896	32.51	8.88178e-12
4	135323	32.61	8.88178e-12
4	135750	32.71	8.88178e-12
4	136177	32.81	8.88178e-12
4	136610	32.91	8.88178e-12
4	137047	33.01	8.88178e-12
4	137477	33.11	8.88178e-12
4	137901	33.21	8.88178e-12
4	138328	33.31	8.88178e-12
4	138755	33.41	8.88178e-12
4	139188	33.51	8.88178e-12
4	139609	33.61	8.88178e-12
4	140036	33.71	8.88178e-12
4	140463	33.81	8.88178e-12
4	140893	33.91	8.88178e-12
4	141327	34.01	8.88178e-12
4	141754	34.11	8.88178e-12
4	142187	34.21	8.88178e-12
4	142614	34.31	8.88178e-12
4	143047	34.41	8.88178e-12
4	143474	34.51	8.88178e-12
4	143901	34.61	8.88178e-12
4	144334	34.71	8.88178e-12
4	144767	34.81	8.88178e-12
4	145194	34.91	8.88178e-12
4	145622	35.01	8.88178e-12
4	146046	35.11	8.88178e-12
4	146464	35.21	8.88178e-12
4	146894	35.31	8.88178e-12
4	147306	35.41	8.88178e-12
4	147730	35.51	8.88178e-12
4	148163	35.61	8.88178e-12
4	148584	35.71	8.88178e-12
4	149008	35.81	8.88178e-12
4	149441	35.91	8.88178e-12
4	149881	36.01	8.88178e-12
4	150311	36.11	8.88178e-12
4	150738	36.21	8.88178e-12
4	151171	36.31	8.88178e-12
4	151604	36.41	8.88178e-12
4	152031	36.51	8.88178e-12
4	152461	36.61	8.88178e-12
4	152894	36.71	8.88178e-12
4	153327	36.81	8.88178e-12
4	153748	36.91	8.88178e-12
4	154188	37.01	8.88178e-12
4	154621	37.11	8.88178e-12
4	155048	37.21	8.88178e-12
4	155481	37.31	8.88178e-12
4	155908	37.41	8.88178e-12
4	156341	37.51	8.88178e-12
4	156768	37.61	8.88178e-12
4	157195	37.71	8.88178e-12
4	157628	37.81	8.88178e-12
4	158055	37.91	8.88178e-12
4	158477	38.01	8.88178e-12
4	158898	38.11	8.88178e-12
4	159325	38.21	8.88178e-12
4	159755	38.31	8.88178e-12
4	160188	38.41	8.88178e-12
4	160615	38.51	8.88178e-12
4	161039	38.61	8.88178e-12
4	161472	38.71	8.88178e-12
4	161890	38.81	8.88178e-12
4	162323	38.91	8.88178e-12
4	162757	39.01	8.88178e-12
4	163181	39.11	8.88178e-12
4	163614	39.21	8.88178e-12
4	164041	39.31	8.88178e-12
4	164474	39.41	8.88178e-12
4	164907	39.51	8.88178e-12
4	165340	39.61	8.88178e-12
4	165761	39.71	8.88178e-12
4	166191	39.81	8.88178e-12
4	166624	39.91	8.88178e-12
4	167058	40.01	8.88178e-12
4	167491	40.11	8.88178e-12
4	167924	40.21	8.88178e-12
4	168357	40.31	8.88178e-12
4	168784	40.41	8.88178e-12
4	169211	40.51	8.88178e-12
4	169635	40.61	8.88178e-12
4	170062	40.71	8.88178e-12
4	170486	40.81	8.88178e-12
4	170913	40.91	8.88178e-12
4	171347	41.01	8.88178e-12
4	171765	41.11	8.88178e-12
4	172198	41.21	8.88178e-12
4	172625	41.31	8.88178e-12
4	173058	41.41	8.88178e-12
4	173479	41.51	8.88178e-12
4	173912	41.61	8.88178e-12
4	174342	41.71	8.88178e-12
4	174760	41.81	8.88178e-12
4	175193	41.91	8.88178e-12
4	175600	42.01	8.88178e-12
4	176027	42.11	8.88178e-12
4	176457	42.21	8.88178e-12
4	176884	42.31	8.88178e-12
4	177311	42.41	8.88178e-12
4	177735	42.51	8.88178e-12
4	178162	42.61	8.88178e-12
4	178583	42.71	8.88178e-12
4	179016	42.81	8.88178e-12
4	179437	42.91	8.88178e-12
4	179865	43.01	8.88178e-12
4	180295	43.11	8.88178e-12
4	180725	43.21	8.88178e-12
4	181155	43.31	8.88178e-12
4	181588	43.41	8.88178e-12
4	182021	43.51	8.88178e-12
4	182451	43.61	8.88178e-12
4	182872	43.71	8.88178e-12
4	183299	43.81	8.88178e-12
4	183729	43.91	8.88178e-12
4	184166	44.01	8.88178e-12
4	184587	44.11	8.88178e-12
4	185017	44.21	8.88178e-12
4	185435	44.31	8.88178e-12
4	185856	44.41	8.88178e-12
4	186280	44.51	8.88178e-12
4	186713	44.61	8.88178e-12
4	187131	44.71	8.88178e-12
4	187564	44.81	8.88178e-12
4	187991	44.91	8.88178e-12
4	188425	45.01	8.88178e-12
4	188849	45.11	8.88178e-12
4	189276	45.21	8.88178e-12
4	189703	45.31	8.88178e-12
4	190136	45.41	8.88178e-12
4	190563	45.51	8.88178e-12
4	190996	45.61	8.88178e-12
4	191423	45.71	8.88178e-12
4	191856	45.81	8.88178e-12
4	192286	45.91	8.88178e-12
4	192720	46.01	8.88178e-12
4	193147	46.11	8.88178e-12
4	193574	46.21	8.88178e-12
4	194007	46.31	8.88178e-12
4	194437	46.41	8.88178e-12
4	194867	46.51	8.88178e-12
4	195297	46.61	8.88178e-12
4	195730	46.71	8.88178e-12
4	196160	46.81	8.88178e-12
4	196587	46.91	8.88178e-12
4	197021	47.01	8.88178e-12
4	197454	47.11	8.88178e-12
4	197875	47.21	8.88178e-12
4	198299	47.31	8.88178e-12
4	198732	47.41	8.88178e-12
4	199159	47.51	8.88178e-12
4	199586	47.61	8.88178e-12
4	200016	47.71	8.88178e-12
4	200443	47.81	8.88178e-12
4	200876	47.91	8.88178e-12
4	201316	48.01	8.88178e-12
4	201749	48.11	8.88178e-12
4	202182	48.21	8.88178e-12
4	202588	48.31	8.88178e-12
4	203015	48.41	8.88178e-12
4	203427	48.51	8.88178e-12
4	203848	48.61	8.88178e-12
4	204281	48.71	8.88178e-12
4	204708	48.81	8.88178e-12
4	205138	48.91	8.88178e-12
4	205578	49.01	8.88178e-12
4	206008	49.11	8.88178e-12
4	206438	49.21	8.88178e-12
4	206871	49.31	8.88178e-12
4	207304	49.41	8.88178e-12
4	207731	49.51	8.88178e-12
4	208152	49.61	8.88178e-12
4	208570	49.71	8.88178e-12
4	208994	49.81	8.88178e-12
4	209421	49.91	8.88178e-12
4	209856	50.01	8.88178e-12
4	1718024	50.11	8.88178e-12
4	3295339	50.21	8.88178e-12
4	4881148	50.31	8.88178e-12
4	6454162	50.41	8.88178e-12
4	8046667	50.51	8.88178e-12
4	9618211	50.61	8.88178e-12
4	11199998	50.71	8.88178e-12
4	12782760	50.81	8.88178e-12
4	14367430	50.91	8.88178e-12
4	15964118	51.01	8.88178e-12
4	17550966	51.11	8.88178e-12
4	19114312	51.21	8.88178e-12
4	20686248	51.31	8.88178e-12
4	22289246	51.41	8.88178e-12
4	23857276	51.51	8.88178e-12
4	25453949	51.61	8.88178e-12
4	27031005	51.71	8.88178e-12
4	28623016	51.81	8.88178e-12
4	30198198	51.91	8.88178e-12
4	31778019	52.01	8.88178e-12
4	33370788	52.11	8.88178e-12
4	34962777	52.21	8.88178e-12
4	36536410	52.31	8.88178e-12
4	38111833	52.41	8.88178e-12
4	39691886	52.51	8.88178e-12
4	41268214	52.61	8.88178e-12
4	42849537	52.71	8.88178e-12
4	44435018	52.81	8.88178e-12
4	46003650	52.91	8.88178e-12
4	47603787	53.01	8.88178e-12
4	49189859	53.11	8.88178e-12
4	50764359	53.21	8.88178e-12
4	52355039	53.31	8.88178e-12
4	53922767	53.41	8.88178e-12
4	55518630	53.51	8.88178e-12
4	57102754	53.61	8.88178e-12
4	58682664	53.71	8.88178e-12
4	60264624	53.81	8.88178e-12
4	61847366	53.91	8.88178e-12
4	63426583	54.01	8.88178e-12
4	65005424	54.11	8.88178e-12
4	66590054	54.21	8.88178e-12
4	68170645	54.31	8.88178e-12
4	69760023	54.41	8.88178e-12
4	71329498	54.51	8.88178e-12
4	72926544	54.61	8.88178e-12
4	74510760	54.71	8.88178e-12
4	76090880	54.81	8.88178e-12
4	77686320	54.91	8.88178e-12
4	79266907	55.01	8.88178e-12
4	80849268	55.11	8.88178e-12
4	82421189	55.21	8.88178e-12
4	84003335	55.31	8.88178e-12
4	85584627	55.41	8.88178e-12
4	87174527	55.51	8.88178e-12
4	88743532	55.61	8.88178e-12
4	90342839	55.71	8.88178e-12
4	91916449	55.81	8.88178e-12
4	93511819	55.91	8.88178e-12
4	95095142	56.01	8.88178e-12
4	96665673	56.11	8.88178e-12
4	98255021	56.21	8.88178e-12
4	99844391	56.31	8.88178e-12
4	101412909	56.41	8.88178e-12
4	103001542	56.51	8.88178e-12
4	104576766	56.61	8.88178e-12
4	106171148	56.71	8.88178e-12
4	107762908	56.81	8.88178e-12
4	109328673	56.91	8.88178e-12
4	110916830	57.01	8.88178e-12
4	112494278	57.11	8.88178e-12
4	114073000	57.21	8.88178e-12
4	115662821	57.31	8.88178e-12
4	117233354	57.41	8.88178e-12
4	118819745	57.51	8.88178e-12
4	120406667	57.61	8.88178e-12
4	121974833	57.71	8.88178e-12
4	123572208	57.81	8.88178e-12
4	125149330	57.91	8.88178e-12
4	126715569	58.01	8.88178e-12
4	128302280	58.11	8.88178e-12
4	129882692	58.21	8.88178e-12
4	131458447	58.31	8.88178e-12
4	133044804	58.41	8.88178e-12
4	134635901	58.51	8.88178e-12
4	136199884	58.61	8.88178e-12
4	137782740	58.71	8.88178e-12
4	139372425	58.81	8.88178e-12
4	140944216	58.91	8.88178e-12
4	142536749	59.01	8.88178e-12
4	144133056	59.11	8.88178e-12
4	145689997	59.21	8.88178e-12
4	147278968	59.31	8.88178e-12
4	148851741	59.41	8.88178e-12
4	150428183	59.51	8.88178e-12
4	152037108	59.61	8.88178e-12
4	153607718	59.71	8.88178e-12
4	155196287	59.81	8.88178e-12
4	156769648	59.91	8.88178e-12
4	158355180	60.01	-8
4	159935756	60.11	-8
4	161510253	60.21	-8
4	163091794	60.31	-8
4	164679756	60.41	-8
4	166268219	60.51	-8
4	167850026	60.61	-8
4	169427434	60.71	-8
4	171006968	60.81	-8
4	172601355	60.91	-8
4	174176685	61.01	-8
4	175749681	61.11	-8
4	177340094	61.21	-8
4	178926558	61.31	-8
4	180500760	61.41	-8
4	182081157	61.51	-8
4	183664968	61.61	-8
4	185245971	61.71	-8
4	186829784	61.81	-8
4	188406599	61.91	-8
4	190000890	62.01	-8
4	191568130	62.11	-8
4	193155013	62.21	-8
4	194727982	62.31	-8
4	196317326	62.41	-8
4	197903938	62.51	-8
4	199470490	62.61	-8
4	201066456	62.71	-8
4	202629789	62.81	-8
4	204219617	62.91	-8
4	205803928	63.01	-8
4	207376467	63.11	-8
4	208954751	63.21	-8
4	210544960	63.31	-8
4	212136903	63.41	-8
4	213719388	63.51	-8
4	215310160	63.61	-8
4	216885855	63.71	-8
4	218471424	63.81	-8
4	220055395	63.91	-8
4	221634469	64.01	0
4	223229458	64.11	0
4	224782200	64.21	0
4	226386457	64.31	0
4	227977115	64.41	0
4	229539980	64.51	0
4	231134517	64.61	0
4	232705180	64.71	0
4	234299796	64.81	0
4	235892966	64.91	0
4	237461077	65.01	0
4	239041823	65.11	0
4	240627088	65.21	0
4	242214284	65.31	0
4	243772962	65.41	0
4	245369185	65.51	0
4	246945728	65.61	0
4	248531723	65.71	0
4	250114526	65.81	0
4	251693908	65.91	0
4	253270024	66.01	0
4	254872170	66.11	0
4	256435522	66.21	0
4	258018303	66.31	0
4	259601681	66.41	0
4	261189442	66.51	0
4	262766199	66.61	0
4	264333002	66.71	0
4	265932719	66.81	0
4	267513905	66.91	0
4	269090527	67.01	0
4	270667953	67.11	0
4	272258713	67.21	0
4	273829967	67.31	0
4	275409462	67.41	0
4	276989192	67.51	0
4	278558237	67.61	0
4	280157277	67.71	0
4	281730027	67.81	0
4	283304866	67.91	0
4	284895195	68.01	0
4	286477494	68.11	0
4	288054370	68.21	0
4	289647155	68.31	0
4	291219650	68.41	0
4	292794423	68.51	0
4	294385403	68.61	0
4	295953918	68.71	0
4	297545961	68.81	0
4	299124376	68.91	0
4	300700478	69.01	0
4	302279590	69.11	0
4	303877224	69.21	0
4	305449113	69.31	0
4	307031796	69.41	0
4	308607418	69.51	0
4	310162710	69.61	0
4	311775351	69.71	0
4	313363341	69.81	0
4	314918748	69.91	0
3	232	1.11	-0.000358191
3	666	1.21	-0.000681704
3	1097	1.31	-0.00093487
3	1530	1.41	-0.00112579
3	1964	1.51	-0.00126221
3	2398	1.61	-0.00135149
3	2826	1.71	-0.00140049
3	3250	1.81	-0.00141557
3	3684	1.91	-0.00140255
3	4112	2.01	-0.00136671
3	4530	2.11	-0.0013128
3	4951	2.21	-0.00124502
3	5381	2.31	-0.0011671
3	5814	2.41	-0.00108223
3	6241	2.51	-0.000993208
3	6671	2.61	-0.000902362
3	7089	2.71	-0.000811651
3	7522	2.81	-0.000722679
3	7955	2.91	-0.000636729
3	8386	3.01	-0.0005548
3	8816	3.11	-0.000477639
3	9240	3.21	-0.000405773
3	9667	3.31	-0.00033954
3	10094	3.41	-0.000279116
3	10524	3.51	-0.000224541
3	10957	3.61	-0.000175743
3	11390	3.71	-0.00013256
3	11823	3.81	-9.47571e-05
3	12253	3.91	-6.2046e-05
3	12681	4.01	-3.40986e-05
3	13105	4.11	-1.05605e-05
3	13526	4.21	8.93844e-06
3	13956	4.31	2.4774e-05
3	14377	4.41	3.73203e-05
3	14804	4.51	4.69433e-05
3	15237	4.61	5.39956e-05
3	15664	4.71	5.88124e-05
3	16097	4.81	6.1709e-05
3	16527	4.91	6.29785e-05
3	16961	5.01	6.28903e-05
3	17394	5.11	6.169e-05
3	17827	5.21	5.95988e-05
3	18251	5.31	5.68144e-05
3	18684	5.41	5.35112e-05
3	19111	5.51	4.98416e-05
3	19544	5.61	4.59373e-05
3	19968	5.71	4.19105e-05
3	20395	5.81	3.78555e-05
3	20822	5.91	3.38499e-05
3	21256	6.01	2.99569e-05
3	21686	6.11	2.62259e-05
3	22113	6.21	2.26948e-05
3	22543	6.31	1.93911e-05
3	22967	6.41	1.6333e-05
3	23391	6.51	1.35314e-05
3	23818	6.61	1.09904e-05
3	24251	6.71	8.70882e-06
3	24684	6.81	6.6809e-06
3	25111	6.91	4.89747e-06
3	25551	7.01	3.3466e-06
3	25984	7.11	2.01432e-06
3	26399	7.21	8.85256e-07
3	26829	7.31	-5.68459e-08
3	27262	7.41	-8.28678e-07
3	27692	7.51	-1.44699e-06
3	28119	7.61	-1.92826e-06
3	28552	7.71	-2.28849e-06
3	28976	7.81	-2.54296e-06
3	29397	7.91	-2.7061e-06
3	29837	8.01	-2.79139e-06
3	30270	8.11	-2.8113e-06
3	30703	8.21	-2.77721e-06
3	31133	8.31	-2.69943e-06
3	31560	8.41	-2.58721e-06
3	31993	8.51	-2.44874e-06
3	32417	8.61	-2.29123e-06
3	32850	8.71	-2.12092e-06
3	33274	8.81	-1.94317e-06
3	33704	8.91	-1.7625e-06
3	34132	9.01	-1.58267e-06
3	34565	9.11	-1.40677e-06
3	34986	9.21	-1.23723e-06
3	35419	9.31	-1.07596e-06
3	35846	9.41	-9.24364e-07
3	36267	9.51	-7.83424e-07
3	36694	9.61	-6.53753e-07
3	37127	9.71	-5.35652e-07
3	37557	9.81	-4.2916e-07
3	37990	9.91	-3.34103e-07
3	38427	10.01	-2.5013e-07
3	38860	10.11	-1.76757e-07
3	39293	10.21	-1.13395e-07
3	39720	10.31	-5.93825e-08
3	40153	10.41	-1.40084e-08
3	40577	10.51	2.34657e-08
3	41001	10.61	5.3787e-08
3	41434	10.71	7.76954e-08
3	41861	10.81	9.59155e-08
3	42291	10.91	1.09142e-07
3	42731	11.01	1.18035e-07
3	43164	11.11	1.23212e-07
3	43597	11.21	1.2525e-07
3	44030	11.31	1.24675e-07
3	44463	11.41	1.21968e-07
3	44887	11.51	1.17559e-07
3	45320	11.61	1.11834e-07
3	45753	11.71	1.05132e-07
3	46180	11.81	9.77476e-08
3	46613	11.91	8.99373e-08
3	47050	12.01	8.19171e-08
3	47483	12.11	7.38677e-08
3	47910	12.21	6.59401e-08
3	48340	12.31	5.82538e-08
3	48764	12.41	5.09036e-08
3	49191	12.51	4.39606e-08
3	49624	12.61	3.74765e-08
3	50051	12.71	3.14852e-08
3	50472	12.81	2.60055e-08
3	50905	12.91	2.10438e-08
3	51342	13.01	1.65958e-08
3	51772	13.11	1.26498e-08
3	52187	13.21	9.18554e-09
3	52614	13.31	6.17888e-09
3	53047	13.41	3.60174e-09
3	53471	13.51	1.42322e-09
3	53904	13.61	-3.90088e-10
3	54337	13.71	-1.8705e-09
3	54770	13.81	-3.05107e-09
3	55203	13.91	-3.96518e-09
3	55643	14.01	-4.64375e-09
3	56058	14.11	-5.11768e-09
3	56491	14.21	-5.41434e-09
3	56918	14.31	-5.56071e-09
3	57351	14.41	-5.58096e-09
3	57778	14.51	-5.49747e-09
3	58193	14.61	-5.33085e-09
3	58617	14.71	-5.09743e-09
3	59038	14.81	-4.81464e-09
3	59468	14.91	-4.49667e-09
3	59890	15.01	-4.15525e-09
3	60323	15.11	-3.80034e-09
3	60756	15.21	-3.44151e-09
3	61183	15.31	-3.08518e-09
3	61607	15.41	-2.73772e-09
3	62040	15.51	-2.40306e-09
3	62473	15.61	-2.08544e-09
3	62900	15.71	-1.78773e-09
3	63321	15.81	-1.51132e-09
3	63754	15.91	-1.25766e-09
3	64194	16.01	-1.02673e-09
3	64621	16.11	-8.18901e-10
3	65054	16.21	-6.33804e-10
3	65478	16.31	-4.70735e-10
3	65905	16.41	-3.28271e-10
3	66332	16.51	-2.05702e-10
3	66765	16.61	-1.00897e-10
3	67186	16.71	-1.35003e-11
3	67616	16.81	5.82645e-11
3	68037	16.91	1.16174e-10
3	68468	17.01	1.61648e-10
3	68895	17.11	1.95755e-10
3	69322	17.21	2.20624e-10
3	69755	17.31	2.36966e-10
3	70188	17.41	2.45848e-10
3	70618	17.51	2.4869e-10
3	71042	17.61	2.46914e-10
3	71475	17.71	2.40874e-10
3	71908	17.81	2.31282e-10
3	72329	17.91	2.19913e-10
3	72769	18.01	2.05702e-10
3	73202	18.11	1.91491e-10
3	73629	18.21	1.7657e-10
3	74053	18.31	1.59872e-10
3	74486	18.41	1.44595e-10
3	74913	18.51	1.30385e-10
3	75346	18.61	1.16174e-10
3	75779	18.71	1.01963e-10
3	76212	18.81	8.7752e-11
3	76645	18.91	7.35412e-11
3	77067	19.01	6.21725e-11
3	77500	19.11	5.15143e-11
3	77933	19.21	4.08562e-11
3	78366	19.31	3.16192e-11
3	78799	19.41	2.45137e-11
3	79232	19.51	1.74083e-11
3	79656	19.61	1.03029e-11
3	80074	19.71	6.03961e-12
3	80501	19.81	2.4869e-12
3	80928	19.91	-1.06581e-12
3	81368	20.01	-4.61853e-12
3	81801	20.11	-8.17124e-12
3	82234	20.21	-8.88178e-12
3	82664	20.31	-8.88178e-12
3	83091	20.41	-8.88178e-12
3	83518	20.51	-8.88178e-12
3	83945	20.61	-8.88178e-12
3	84372	20.71	-8.88178e-12
3	84799	20.81	-8.88178e-12
3	85214	20.91	-8.88178e-12
3	85654	21.01	-8.88178e-12
3	86087	21.11	-8.88178e-12
3	86517	21.21	-8.88178e-12
3	86950	21.31	-8.88178e-12
3	87383	21.41	-8.88178e-12
3	87810	21.51	-8.88178e-12
3	88243	21.61	-8.88178e-12
3	88667	21.71	-8.88178e-12
3	89097	21.81	-8.88178e-12
3	89527	21.91	-8.88178e-12
3	89958	22.01	-8.88178e-12
3	90379	22.11	-8.88178e-12
3	90806	22.21	-8.17124e-12
3	91239	22.31	-7.4607e-12
3	91666	22.41	-6.75016e-12
3	92093	22.51	-6.03961e-12
3	92520	22.61	-5.68434e-12
3	92944	22.71	-4.9738e-12
3	93362	22.81	-4.61853e-12
3	93795	22.91	-4.26326e-12
3	94223	23.01	-3.55271e-12
3	94650	23.11	-3.19744e-12
3	95077	23.21	-3.19744e-12
3	95510	23.31	-2.84217e-12
3	95940	23.41	-2.4869e-12
3	96370	23.51	-2.13163e-12
3	96797	23.61	-2.13163e-12
3	97224	23.71	-1.77636e-12
3	97657	23.81	-1.77636e-12
3	98090	23.91	-1.42109e-12
3	98524	24.01	-1.42109e-12
3	98957	24.11	-1.06581e-12
3	99387	24.21	-1.06581e-12
3	99817	24.31	-1.06581e-12
3	100247	24.41	-1.06581e-12
3	100665	24.51	-7.10543e-13
3	101083	24.61	-7.10543e-13
3	101513	24.71	-7.10543e-13
3	101946	24.81	-7.10543e-13
3	102373	24.91	-7.10543e-13
3	102807	25.01	-3.55271e-13
3	103237	25.11	-3.55271e-13
3	103643	25.21	-3.55271e-13
3	104067	25.31	-3.55271e-13
3	104500	25.41	-3.55271e-13
3	104933	25.51	-3.55271e-13
3	105363	25.61	-3.55271e-13
3	105796	25.71	-3.55271e-13
3	106229	25.81	-3.55271e-13
3	106659	25.91	-3.55271e-13
3	107093	26.01	0
3	107523	26.11	0
3	107944	26.21	0
3	108374	26.31	0
3	108804	26.41	0
3	109228	26.51	0
3	109655	26.61	0
3	110082	26.71	0
3	110506	26.81	0
3	110939	26.91	0
3	111379	27.01	0
3	111806	27.11	0
3	112227	27.21	0
3	112660	27.31	0
3	113087	27.41	0
3	113511	27.51	0
3	113938	27.61	0
3	114371	27.71	0
3	114792	27.81	0
3	115225	27.91	0
3	115665	28.01	0
3	116095	28.11	0
3	116522	28.21	0
3	116955	28.31	0
3	117388	28.41	0
3	117812	28.51	0
3	118245	28.61	0
3	118675	28.71	0
3	119102	28.81	0
3	119535	28.91	0
3	119975	29.01	0
3	120408	29.11	0
3	120841	29.21	0
3	121262	29.31	0
3	121686	29.41	0
3	122119	29.51	0
3	122546	29.61	0
3	122970	29.71	0
3	123400	29.81	0
3	123833	29.91	0
3	124264	30.01	0
3	124679	30.11	0
3	125106	30.21	0
3	125539	30.31	0
3	125951	30.41	0
3	126369	30.51	0
3	126799	30.61	0
3	127220	30.71	0
3	127635	30.81	0
3	128059	30.91	0
3	128493	31.01	0
3	128926	31.11	0
3	129359	31.21	0
3	129780	31.31	0
3	130201	31.41	0
3	130634	31.51	0
3	131055	31.61	0
3	131482	31.71	0
3	131903	31.81	0
3	132330	31.91	0
3	132758	32.01	0
3	133179	32.11	0
3	133612	32.21	0
3	134042	32.31	0
3	134469	32.41	0
3	134896	32.51	0
3	135323	32.61	0
3	135750	32.71	0
3	136177	32.81	0
3	136610	32.91	0
3	137047	33.01	0
3	137477	33.11	0
3	137901	33.21	0
3	138328	33.31	0
3	138755	33.41	0
3	139188	33.51	0
3	139609	33.61	0
3	140036	33.71	0
3	140463	33.81	0
3	140893	33.91	0
3	141327	34.01	0
3	141754	34.11	0
3	142187	34.21	0
3	142614	34.31	0
3	143047	34.41	0
3	143474	34.51	0
3	143901	34.61	0
3	144334	34.71	0
3	144767	34.81	0
3	145194	34.91	0
3	145622	35.01	0
3	146046	35.11	0
3	146464	35.21	0
3	146894	35.31	0
3	147306	35.41	0
3	147730	35.51	0
3	148163	35.61	0
3	148584	35.71	0
3	149008	35.81	0
3	149441	35.91	0
3	149881	36.01	0
3	150311	36.11	0
3	150738	36.21	0
3	151171	36.31	0
3	151604	36.41	0
3	152031	36.51	0
3	152461	36.61	0
3	152894	36.71	0
3	153327	36.81	0
3	153748	36.91	0
3	154188	37.01	0
3	154621	37.11	0
3	155048	37.21	0
3	155481	37.31	0
3	155908	37.41	0
3	156341	37.51	0
3	156768	37.61	0
3	157195	37.71	0
3	157628	37.81	0
3	158055	37.91	0
3	158477	38.01	0
3	158898	38.11	0
3	159325	38.21	0
3	159755	38.31	0
3	160188	38.41	0
3	160615	38.51	0
3	161039	38.61	0
3	161472	38.71	0
3	161890	38.81	0
3	162323	38.91	0
3	162757	39.01	0
3	163181	39.11	0
3	163614	39.21	0
3	164041	39.31	0
3	164474	39.41	0
3	164907	39.51	0
3	165340	39.61	0
3	165761	39.71	0
3	166191	39.81	0
3	166624	39.91	0
3	167058	40.01	0
3	167491	40.11	0
3	167924	40.21	0
3	168357	40.31	0
3	168784	40.41	0
3	169211	40.51	0
3	169635	40.61	0
3	170062	40.71	0
3	170486	40.81	0
3	170913	40.91	0
3	171347	41.01	0
3	171765	41.11	0
3	172198	41.21	0
3	172625	41.31	0
3	173058	41.41	0
3	173479	41.51	0
3	173912	41.61	0
3	174342	41.71	0
3	174760	41.81	0
3	175193	41.91	0
3	175600	42.01	0
3	176027	42.11	0
3	176457	42.21	0
3	176884	42.31	0
3	177311	42.41	0
3	177735	42.51	0
3	178162	42.61	0
3	178583	42.71	0
3	179016	42.81	0
3	179437	42.91	0
3	179865	43.01	0
3	180295	43.11	0
3	180725	43.21	0
3	181155	43.31	0
3	181588	43.41	0
3	182021	43.51	0
3	182451	43.61	0
3	182872	43.71	0
3	183299	43.81	0
3	183729	43.91	0
3	184166	44.01	0
3	184587	44.11	0
3	185017	44.21	0
3	185435	44.31	0
3	185856	44.41	0
3	186280	44.51	0
3	186713	44.61	0
3	187131	44.71	0
3	187564	44.81	0
3	187991	44.91	0
3	188425	45.01	0
3	188849	45.11	0
3	189276	45.21	0
3	189703	45.31	0
3	190136	45.41	0
3	190563	45.51	0
3	190996	45.61	0
3	191423	45.71	0
3	191856	45.81	0
3	192286	45.91	0
3	192720	46.01	0
3	193147	46.11	0
3	193574	46.21	0
3	194007	46.31	0
3	194437	46.41	0
3	194867	46.51	0
3	195297	46.61	0
3	195730	46.71	0
3	196160	46.81	0
3	196587	46.91	0
3	197021	47.01	0
3	197454	47.11	0
3	197875	47.21	0
3	198299	47.31	0
3	198732	47.41	0
3	199159	47.51	0
3	199586	47.61	0
3	200016	47.71	0
3	200443	47.81	0
3	200876	47.91	0
3	201316	48.01	0
3	201749	48.11	0
3	202182	48.21	0
3	202588	48.31	0
3	203015	48.41	0
3	203427	48.51	0
3	203848	48.61	0
3	204281	48.71	0
3	204708	48.81	0
3	205138	48.91	0
3	205578	49.01	0
3	206008	49.11	0
3	206438	49.21	0
3	206871	49.31	0
3	207304	49.41	0
3	207731	49.51	0
3	208152	49.61	0
3	208570	49.71	0
3	208994	49.81	0
3	209421	49.91	0
3	209856	50.01	0
3	1718024	50.11	0
3	3295339	50.21	0
3	4881148	50.31	0
3	6454162	50.41	0
3	8046667	50.51	0
3	9618211	50.61	0
3	11199998	50.71	0
3	12782760	50.81	0
3	14367430	50.91	0
3	15964118	51.01	0
3	17550966	51.11	0
3	19114312	51.21	0
3	20686248	51.31	0
3	22289246	51.41	0
3	23857276	51.51	0
3	25453949	51.61	0
3	27031005	51.71	0
3	28623016	51.81	0
3	30198198	51.91	0
3	31778019	52.01	0
3	33370788	52.11	0
3	34962777	52.21	0
3	36536410	52.31	0
3	38111833	52.41	0
3	39691886	52.51	0
3	41268214	52.61	0
3	42849537	52.71	0
3	44435018	52.81	0
3	46003650	52.91	0
3	47603787	53.01	0
3	49189859	53.11	0
3	50764359	53.21	0
3	52355039	53.31	0
3	53922767	53.41	0
3	55518630	53.51	0
3	57102754	53.61	0
3	58682664	53.71	0
3	60264624	53.81	0
3	61847366	53.91	0
3	63426583	54.01	0
3	65005424	54.11	0
3	66590054	54.21	0
3	68170645	54.31	0
3	69760023	54.41	0
3	71329498	54.51	0
3	72926544	54.61	0
3	74510760	54.71	0
3	76090880	54.81	0
3	77686320	54.91	0
3	79266907	55.01	0
3	80849268	55.11	0
3	82421189	55.21	0
3	84003335	55.31	0
3	85584627	55.41	0
3	87174527	55.51	0
3	88743532	55.61	0
3	90342839	55.71	0
3	91916449	55.81	0
3	93511819	55.91	0
3	95095142	56.01	0
3	96665673	56.11	0
3	98255021	56.21	0
3	99844391	56.31	0
3	101412909	56.41	0
3	103001542	56.51	0
3	104576766	56.61	0
3	106171148	56.71	0
3	107762908	56.81	0
3	109328673	56.91	0
3	110916830	57.01	0
3	112494278	57.11	0
3	114073000	57.21	0
3	115662821	57.31	0
3	117233354	57.41	0
3	118819745	57.51	0
3	120406667	57.61	0
3	121974833	57.71	0
3	123572208	57.81	0
3	125149330	57.91	0
3	126715569	58.01	0
3	128302280	58.11	0
3	129882692	58.21	0
3	131458447	58.31	0
3	133044804	58.41	0
3	134635901	58.51	0
3	136199884	58.61	0
3	137782740	58.71	0
3	139372425	58.81	0
3	140944216	58.91	0
3	142536749	59.01	0
3	144133056	59.11	0
3	145689997	59.21	0
3	147278968	59.31	0
3	148851741	59.41	0
3	150428183	59.51	0
3	152037108	59.61	0
3	153607718	59.71	0
3	155196287	59.81	0
3	156769648	59.91	0
3	158355180	60.01	-0.156863
3	159935756	60.11	-1.5659
3	161510253	60.21	-2.72179
3	163091794	60.31	-3.67003
3	164679756	60.41	-4.44792
3	166268219	60.51	-5.08606
3	167850026	60.61	-5.60955
3	169427434	60.71	-6.039
3	171006968	60.81	-6.3913
3	172601355	60.91	-6.6803
3	174176685	61.01	-6.91739
3	175749681	61.11	-7.11188
3	177340094	61.21	-7.27143
3	178926558	61.31	-7.40232
3	180500760	61.41	-7.5097
3	182081157	61.51	-7.59778
3	183664968	61.61	-7.67004
3	185245971	61.71	-7.72932
3	186829784	61.81	-7.77795
3	188406599	61.91	-7.81784
3	190000890	62.01	-7.85056
3	191568130	62.11	-7.87741
3	193155013	62.21	-7.89943
3	194727982	62.31	-7.9175
3	196317326	62.41	-7.93232
3	197903938	62.51	-7.94448
3	199470490	62.61	-7.95445
3	201066456	62.71	-7.96264
3	202629789	62.81	-7.96935
3	204219617	62.91	-7.97486
3	205803928	63.01	-7.97937
3	207376467	63.11	-7.98308
3	208954751	63.21	-7.98612
3	210544960	63.31	-7.98861
3	212136903	63.41	-7.99066
3	213719388	63.51	-7.99234
3	215310160	63.61	-7.99371
3	216885855	63.71	-7.99484
3	218471424	63.81	-7.99577
3	220055395	63.91	-7.99653
3	221634469	64.01	0
3	223229458	64.11	0
3	224782200	64.21	0
3	226386457	64.31	0
3	227977115	64.41	0
3	229539980	64.51	0
3	231134517	64.61	0
3	232705180	64.71	0
3	234299796	64.81	0
3	235892966	64.91	0
3	237461077	65.01	0
3	239041823	65.11	0
3	240627088	65.21	0
3	242214284	65.31	0
3	243772962	65.41	0
3	245369185	65.51	0
3	246945728	65.61	0
3	248531723	65.71	0
3	250114526	65.81	0
3	251693908	65.91	0
3	253270024	66.01	0
3	254872170	66.11	0
3	256435522	66.21	0
3	258018303	66.31	0
3	259601681	66.41	0
3	261189442	66.51	0
3	262766199	66.61	0
3	264333002	66.71	0
3	265932719	66.81	0
3	267513905	66.91	0
3	269090527	67.01	0
3	270667953	67.11	0
3	272258713	67.21	0
3	273829967	67.31	0
3	275409462	67.41	0
3	276989192	67.51	0
3	278558237	67.61	0
3	280157277	67.71	0
3	281730027	67.81	0
3	283304866	67.91	0
3	284895195	68.01	0
3	286477494	68.11	0
3	288054370	68.21	0
3	289647155	68.31	0
3	291219650	68.41	0
3	292794423	68.51	0
3	294385403	68.61	0
3	295953918	68.71	0
3	297545961	68.81	0
3	299124376	68.91	0
3	300700478	69.01	0
3	302279590	69.11	0
3	303877224	69.21	0
3	305449113	69.31	0
3	307031796	69.41	0
3	308607418	69.51	0
3	310162710	69.61	0
3	311775351	69.71	0
3	313363341	69.81	0
3	314918748	69.91	0
7	232	1.11	242.45
7	666	1.21	242.45
7	1097	1.31	242.45
7	1530	1.41	242.45
7	1964	1.51	242.45
7	2398	1.61	242.45
7	2826	1.71	242.45
7	3250	1.81	242.45
7	3684	1.91	242.45
7	4112	2.01	242.45
7	4530	2.11	242.45
7	4951	2.21	242.45
7	5381	2.31	242.45
7	5814	2.41	242.45
7	6241	2.51	242.45
7	6671	2.61	242.45
7	7089	2.71	242.45
7	7522	2.81	242.45
7	7955	2.91	242.45
7	8386	3.01	242.45
7	8816	3.11	242.45
7	9240	3.21	242.45
7	9667	3.31	242.45
7	10094	3.41	242.45
7	10524	3.51	242.45
7	10957	3.61	242.45
7	11390	3.71	242.45
7	11823	3.81	242.45
7	12253	3.91	242.45
7	12681	4.01	242.45
7	13105	4.11	242.45
7	13526	4.21	242.45
7	13956	4.31	242.45
7	14377	4.41	242.45
7	14804	4.51	242.45
7	15237	4.61	242.45
7	15664	4.71	242.45
7	16097	4.81	242.45
7	16527	4.91	242.45
7	16961	5.01	242.45
7	17394	5.11	242.45
7	17827	5.21	242.45
7	18251	5.31	242.45
7	18684	5.41	242.45
7	19111	5.51	242.45
7	19544	5.61	242.45
7	19968	5.71	242.45
7	20395	5.81	242.45
7	20822	5.91	242.45
7	21256	6.01	242.45
7	21686	6.11	242.45
7	22113	6.21	242.45
7	22543	6.31	242.45
7	22967	6.41	242.45
7	23391	6.51	242.45
7	23818	6.61	242.45
7	24251	6.71	242.45
7	24684	6.81	242.45
7	25111	6.91	242.45
7	25551	7.01	242.45
7	25984	7.11	242.45
7	26399	7.21	242.45
7	26829	7.31	242.45
7	27262	7.41	242.45
7	27692	7.51	242.45
7	28119	7.61	242.45
7	28552	7.71	242.45
7	28976	7.81	242.45
7	29397	7.91	242.45
7	29837	8.01	242.45
7	30270	8.11	242.45
7	30703	8.21	242.45
7	31133	8.31	242.45
7	31560	8.41	242.45
7	31993	8.51	242.45
7	32417	8.61	242.45
7	32850	8.71	242.45
7	33274	8.81	242.45
7	33704	8.91	242.45
7	34132	9.01	242.45
7	34565	9.11	242.45
7	34986	9.21	242.45
7	35419	9.31	242.45
7	35846	9.41	242.45
7	36267	9.51	242.45
7	36694	9.61	242.45
7	37127	9.71	242.45
7	37557	9.81	242.45
7	37990	9.91	242.45
7	38427	10.01	242.45
7	38860	10.11	242.45
7	39293	10.21	242.45
7	39720	10.31	242.45
7	40153	10.41	242.45
7	40577	10.51	242.45
7	41001	10.61	242.45
7	41434	10.71	242.45
7	41861	10.81	242.45
7	42291	10.91	242.45
7	42731	11.01	242.45
7	43164	11.11	242.45
7	43597	11.21	242.45
7	44030	11.31	242.45
7	44463	11.41	242.45
7	44887	11.51	242.45
7	45320	11.61	242.45
7	45753	11.71	242.45
7	46180	11.81	242.45
7	46613	11.91	242.45
7	47050	12.01	242.45
7	47483	12.11	242.45
7	47910	12.21	242.45
7	48340	12.31	242.45
7	48764	12.41	242.45
7	49191	12.51	242.45
7	49624	12.61	242.45
7	50051	12.71	242.45
7	50472	12.81	242.45
7	50905	12.91	242.45
7	51342	13.01	242.45
7	51772	13.11	242.45
7	52187	13.21	242.45
7	52614	13.31	242.45
7	53047	13.41	242.45
7	53471	13.51	242.45
7	53904	13.61	242.45
7	54337	13.71	242.45
7	54770	13.81	242.45
7	55203	13.91	242.45
7	55643	14.01	242.45
7	56058	14.11	242.45
7	56491	14.21	242.45
7	56918	14.31	242.45
7	57351	14.41	242.45
7	57778	14.51	242.45
7	58193	14.61	242.45
7	58617	14.71	242.45
7	59038	14.81	242.45
7	59468	14.91	242.45
7	59890	15.01	242.45
7	60323	15.11	242.45
7	60756	15.21	242.45
7	61183	15.31	242.45
7	61607	15.41	242.45
7	62040	15.51	242.45
7	62473	15.61	242.45
7	62900	15.71	242.45
7	63321	15.81	242.45
7	63754	15.91	242.45
7	64194	16.01	242.45
7	64621	16.11	242.45
7	65054	16.21	242.45
7	65478	16.31	242.45
7	65905	16.41	242.45
7	66332	16.51	242.45
7	66765	16.61	242.45
7	67186	16.71	242.45
7	67616	16.81	242.45
7	68037	16.91	242.45
7	68468	17.01	242.45
7	68895	17.11	242.45
7	69322	17.21	242.45
7	69755	17.31	242.45
7	70188	17.41	242.45
7	70618	17.51	242.45
7	71042	17.61	242.45
7	71475	17.71	242.45
7	71908	17.81	242.45
7	72329	17.91	242.45
7	72769	18.01	242.45
7	73202	18.11	242.45
7	73629	18.21	242.45
7	74053	18.31	242.45
7	74486	18.41	242.45
7	74913	18.51	242.45
7	75346	18.61	242.45
7	75779	18.71	242.45
7	76212	18.81	242.45
7	76645	18.91	242.45
7	77067	19.01	242.45
7	77500	19.11	242.45
7	77933	19.21	242.45
7	78366	19.31	242.45
7	78799	19.41	242.45
7	79232	19.51	242.45
7	79656	19.61	242.45
7	80074	19.71	242.45
7	80501	19.81	242.45
7	80928	19.91	242.45
7	81368	20.01	242.45
7	81801	20.11	242.45
7	82234	20.21	242.45
7	82664	20.31	242.45
7	83091	20.41	242.45
7	83518	20.51	242.45
7	83945	20.61	242.45
7	84372	20.71	242.45
7	84799	20.81	242.45
7	85214	20.91	242.45
7	85654	21.01	242.45
7	86087	21.11	242.45
7	86517	21.21	242.45
7	86950	21.31	242.45
7	87383	21.41	242.45
7	87810	21.51	242.45
7	88243	21.61	242.45
7	88667	21.71	242.45
7	89097	21.81	242.45
7	89527	21.91	242.45
7	89958	22.01	242.45
7	90379	22.11	242.45
7	90806	22.21	242.45
7	91239	22.31	242.45
7	91666	22.41	242.45
7	92093	22.51	242.45
7	92520	22.61	242.45
7	92944	22.71	242.45
7	93362	22.81	242.45
7	93795	22.91	242.45
7	94223	23.01	242.45
7	94650	23.11	242.45
7	95077	23.21	242.45
7	95510	23.31	242.45
7	95940	23.41	242.45
7	96370	23.51	242.45
7	96797	23.61	242.45
7	97224	23.71	242.45
7	97657	23.81	242.45
7	98090	23.91	242.45
7	98524	24.01	242.45
7	98957	24.11	242.45
7	99387	24.21	242.45
7	99817	24.31	242.45
7	100247	24.41	242.45
7	100665	24.51	242.45
7	101083	24.61	242.45
7	101513	24.71	242.45
7	101946	24.81	242.45
7	102373	24.91	242.45
7	102807	25.01	242.45
7	103237	25.11	242.45
7	103643	25.21	242.45
7	104067	25.31	242.45
7	104500	25.41	242.45
7	104933	25.51	242.45
7	105363	25.61	242.45
7	105796	25.71	242.45
7	106229	25.81	242.45
7	106659	25.91	242.45
7	107093	26.01	242.45
7	107523	26.11	242.45
7	107944	26.21	242.45
7	108374	26.31	242.45
7	108804	26.41	242.45
7	109228	26.51	242.45
7	109655	26.61	242.45
7	110082	26.71	242.45
7	110506	26.81	242.45
7	110939	26.91	242.45
7	111379	27.01	242.45
7	111806	27.11	242.45
7	112227	27.21	242.45
7	112660	27.31	242.45
7	113087	27.41	242.45
7	113511	27.51	242.45
7	113938	27.61	242.45
7	114371	27.71	242.45
7	114792	27.81	242.45
7	115225	27.91	242.45
7	115665	28.01	242.45
7	116095	28.11	242.45
7	116522	28.21	242.45
7	116955	28.31	242.45
7	117388	28.41	242.45
7	117812	28.51	242.45
7	118245	28.61	242.45
7	118675	28.71	242.45
7	119102	28.81	242.45
7	119535	28.91	242.45
7	119975	29.01	242.45
7	120408	29.11	242.45
7	120841	29.21	242.45
7	121262	29.31	242.45
7	121686	29.41	242.45
7	122119	29.51	242.45
7	122546	29.61	242.45
7	122970	29.71	242.45
7	123400	29.81	242.45
7	123833	29.91	242.45
7	124264	30.01	242.45
7	124679	30.11	242.45
7	125106	30.21	242.45
7	125539	30.31	242.45
7	125951	30.41	242.45
7	126369	30.51	242.45
7	126799	30.61	242.45
7	127220	30.71	242.45
7	127635	30.81	242.45
7	128059	30.91	242.45
7	128493	31.01	242.45
7	128926	31.11	242.45
7	129359	31.21	242.45
7	129780	31.31	242.45
7	130201	31.41	242.45
7	130634	31.51	242.45
7	131055	31.61	242.45
7	131482	31.71	242.45
7	131903	31.81	242.45
7	132330	31.91	242.45
7	132758	32.01	242.45
7	133179	32.11	242.45
7	133612	32.21	242.45
7	134042	32.31	242.45
7	134469	32.41	242.45
7	134896	32.51	242.45
7	135323	32.61	242.45
7	135750	32.71	242.45
7	136177	32.81	242.45
7	136610	32.91	242.45
7	137047	33.01	242.45
7	137477	33.11	242.45
7	137901	33.21	242.45
7	138328	33.31	242.45
7	138755	33.41	242.45
7	139188	33.51	242.45
7	139609	33.61	242.45
7	140036	33.71	242.45
7	140463	33.81	242.45
7	140893	33.91	242.45
7	141327	34.01	242.45
7	141754	34.11	242.45
7	142187	34.21	242.45
7	142614	34.31	242.45
7	143047	34.41	242.45
7	143474	34.51	242.45
7	143901	34.61	242.45
7	144334	34.71	242.45
7	144767	34.81	242.45
7	145194	34.91	242.45
7	145622	35.01	242.45
7	146046	35.11	242.45
7	146464	35.21	242.45
7	146894	35.31	242.45
7	147306	35.41	242.45
7	147730	35.51	242.45
7	148163	35.61	242.45
7	148584	35.71	242.45
7	149008	35.81	242.45
7	149441	35.91	242.45
7	149881	36.01	242.45
7	150311	36.11	242.45
7	150738	36.21	242.45
7	151171	36.31	242.45
7	151604	36.41	242.45
7	152031	36.51	242.45
7	152461	36.61	242.45
7	152894	36.71	242.45
7	153327	36.81	242.45
7	153748	36.91	242.45
7	154188	37.01	242.45
7	154621	37.11	242.45
7	155048	37.21	242.45
7	155481	37.31	242.45
7	155908	37.41	242.45
7	156341	37.51	242.45
7	156768	37.61	242.45
7	157195	37.71	242.45
7	157628	37.81	242.45
7	158055	37.91	242.45
7	158477	38.01	242.45
7	158898	38.11	242.45
7	159325	38.21	242.45
7	159755	38.31	242.45
7	160188	38.41	242.45
7	160615	38.51	242.45
7	161039	38.61	242.45
7	161472	38.71	242.45
7	161890	38.81	242.45
7	162323	38.91	242.45
7	162757	39.01	242.45
7	163181	39.11	242.45
7	163614	39.21	242.45
7	164041	39.31	242.45
7	164474	39.41	242.45
7	164907	39.51	242.45
7	165340	39.61	242.45
7	165761	39.71	242.45
7	166191	39.81	242.45
7	166624	39.91	242.45
7	167058	40.01	242.45
7	167491	40.11	242.45
7	167924	40.21	242.45
7	168357	40.31	242.45
7	168784	40.41	242.45
7	169211	40.51	242.45
7	169635	40.61	242.45
7	170062	40.71	242.45
7	170486	40.81	242.45
7	170913	40.91	242.45
7	171347	41.01	242.45
7	171765	41.11	242.45
7	172198	41.21	242.45
7	172625	41.31	242.45
7	173058	41.41	242.45
7	173479	41.51	242.45
7	173912	41.61	242.45
7	174342	41.71	242.45
7	174760	41.81	242.45
7	175193	41.91	242.45
7	175600	42.01	242.45
7	176027	42.11	242.45
7	176457	42.21	242.45
7	176884	42.31	242.45
7	177311	42.41	242.45
7	177735	42.51	242.45
7	178162	42.61	242.45
7	178583	42.71	242.45
7	179016	42.81	242.45
7	179437	42.91	242.45
7	179865	43.01	242.45
7	180295	43.11	242.45
7	180725	43.21	242.45
7	181155	43.31	242.45
7	181588	43.41	242.45
7	182021	43.51	242.45
7	182451	43.61	242.45
7	182872	43.71	242.45
7	183299	43.81	242.45
7	183729	43.91	242.45
7	184166	44.01	242.45
7	184587	44.11	242.45
7	185017	44.21	242.45
7	185435	44.31	242.45
7	185856	44.41	242.45
7	186280	44.51	242.45
7	186713	44.61	242.45
7	187131	44.71	242.45
7	187564	44.81	242.45
7	187991	44.91	242.45
7	188425	45.01	242.45
7	188849	45.11	242.45
7	189276	45.21	242.45
7	189703	45.31	242.45
7	190136	45.41	242.45
7	190563	45.51	242.45
7	190996	45.61	242.45
7	191423	45.71	242.45
7	191856	45.81	242.45
7	192286	45.91	242.45
7	192720	46.01	242.45
7	193147	46.11	242.45
7	193574	46.21	242.45
7	194007	46.31	242.45
7	194437	46.41	242.45
7	194867	46.51	242.45
7	195297	46.61	242.45
7	195730	46.71	242.45
7	196160	46.81	242.45
7	196587	46.91	242.45
7	197021	47.01	242.45
7	197454	47.11	242.45
7	197875	47.21	242.45
7	198299	47.31	242.45
7	198732	47.41	242.45
7	199159	47.51	242.45
7	199586	47.61	242.45
7	200016	47.71	242.45
7	200443	47.81	242.45
7	200876	47.91	242.45
7	201316	48.01	242.45
7	201749	48.11	242.45
7	202182	48.21	242.45
7	202588	48.31	242.45
7	203015	48.41	242.45
7	203427	48.51	242.45
7	203848	48.61	242.45
7	204281	48.71	242.45
7	204708	48.81	242.45
7	205138	48.91	242.45
7	205578	49.01	242.45
7	206008	49.11	242.45
7	206438	49.21	242.45
7	206871	49.31	242.45
7	207304	49.41	242.45
7	207731	49.51	242.45
7	208152	49.61	242.45
7	208570	49.71	242.45
7	208994	49.81	242.45
7	209421	49.91	242.45
7	209856	50.01	242.45
7	1718024	50.11	242.45
7	3295339	50.21	242.45
7	4881148	50.31	242.45
7	6454162	50.41	242.45
7	8046667	50.51	242.45
7	9618211	50.61	242.45
7	11199998	50.71	242.45
7	12782760	50.81	242.45
7	14367430	50.91	242.45
7	15964118	51.01	242.45
7	17550966	51.11	242.45
7	19114312	51.21	242.45
7	20686248	51.31	242.45
7	22289246	51.41	242.45
7	23857276	51.51	242.45
7	25453949	51.61	242.45
7	27031005	51.71	242.45
7	28623016	51.81	242.45
7	30198198	51.91	242.45
7	31778019	52.01	242.45
7	33370788	52.11	242.45
7	34962777	52.21	242.45
7	36536410	52.31	242.45
7	38111833	52.41	242.45
7	39691886	52.51	242.45
7	41268214	52.61	242.45
7	42849537	52.71	242.45
7	44435018	52.81	242.45
7	46003650	52.91	242.45
7	47603787	53.01	242.45
7	49189859	53.11	242.45
7	50764359	53.21	242.45
7	52355039	53.31	242.45
7	53922767	53.41	242.45
7	55518630	53.51	242.45
7	57102754	53.61	242.45
7	58682664	53.71	242.45
7	60264624	53.81	242.45
7	61847366	53.91	242.45
7	63426583	54.01	242.45
7	65005424	54.11	242.45
7	66590054	54.21	242.45
7	68170645	54.31	242.45
7	69760023	54.41	242.45
7	71329498	54.51	242.45
7	72926544	54.61	242.45
7	74510760	54.71	242.45
7	76090880	54.81	242.45
7	77686320	54.91	242.45
7	79266907	55.01	242.45
7	80849268	55.11	242.45
7	82421189	55.21	242.45
7	84003335	55.31	242.45
7	85584627	55.41	242.45
7	87174527	55.51	242.45
7	88743532	55.61	242.45
7	90342839	55.71	242.45
7	91916449	55.81	242.45
7	93511819	55.91	242.45
7	95095142	56.01	242.45
7	96665673	56.11	242.45
7	98255021	56.21	242.45
7	99844391	56.31	242.45
7	101412909	56.41	242.45
7	103001542	56.51	242.45
7	104576766	56.61	242.45
7	106171148	56.71	242.45
7	107762908	56.81	242.45
7	109328673	56.91	242.45
7	110916830	57.01	242.45
7	112494278	57.11	242.45
7	114073000	57.21	242.45
7	115662821	57.31	242.45
7	117233354	57.41	242.45
7	118819745	57.51	242.45
7	120406667	57.61	242.45
7	121974833	57.71	242.45
7	123572208	57.81	242.45
7	125149330	57.91	242.45
7	126715569	58.01	242.45
7	128302280	58.11	242.45
7	129882692	58.21	242.45
7	131458447	58.31	242.45
7	133044804	58.41	242.45
7	134635901	58.51	242.45
7	136199884	58.61	242.45
7	137782740	58.71	242.45
7	139372425	58.81	242.45
7	140944216	58.91	242.45
7	142536749	59.01	242.45
7	144133056	59.11	242.45
7	145689997	59.21	242.45
7	147278968	59.31	242.45
7	148851741	59.41	242.45
7	150428183	59.51	242.45
7	152037108	59.61	242.45
7	153607718	59.71	242.45
7	155196287	59.81	242.45
7	156769648	59.91	242.45
7	158355180	60.01	242.45
7	159935756	60.11	242.45
7	161510253	60.21	242.45
7	163091794	60.31	242.45
7	164679756	60.41	242.45
7	166268219	60.51	242.45
7	167850026	60.61	242.45
7	169427434	60.71	242.45
7	171006968	60.81	242.45
7	172601355	60.91	242.45
7	174176685	61.01	242.45
7	175749681	61.11	242.45
7	177340094	61.21	242.45
7	178926558	61.31	242.45
7	180500760	61.41	242.45
7	182081157	61.51	242.45
7	183664968	61.61	242.45
7	185245971	61.71	242.45
7	186829784	61.81	242.45
7	188406599	61.91	242.45
7	190000890	62.01	242.45
7	191568130	62.11	242.45
7	193155013	62.21	242.45
7	194727982	62.31	242.45
7	196317326	62.41	242.45
7	197903938	62.51	242.45
7	199470490	62.61	242.45
7	201066456	62.71	242.45
7	202629789	62.81	242.45
7	204219617	62.91	242.45
7	205803928	63.01	242.45
7	207376467	63.11	242.45
7	208954751	63.21	242.45
7	210544960	63.31	242.45
7	212136903	63.41	242.45
7	213719388	63.51	242.45
7	215310160	63.61	242.45
7	216885855	63.71	242.45
7	218471424	63.81	242.45
7	220055395	63.91	242.45
7	221634469	64.01	242.45
7	223229458	64.11	242.45
7	224782200	64.21	242.45
7	226386457	64.31	242.45
7	227977115	64.41	242.45
7	229539980	64.51	242.45
7	231134517	64.61	242.45
7	232705180	64.71	242.45
7	234299796	64.81	242.45
7	235892966	64.91	242.45
7	237461077	65.01	242.45
7	239041823	65.11	242.45
7	240627088	65.21	242.45
7	242214284	65.31	242.45
7	243772962	65.41	242.45
7	245369185	65.51	242.45
7	246945728	65.61	242.45
7	248531723	65.71	242.45
7	250114526	65.81	242.45
7	251693908	65.91	242.45
7	253270024	66.01	242.45
7	254872170	66.11	242.45
7	256435522	66.21	242.45
7	258018303	66.31	242.45
7	259601681	66.41	242.45
7	261189442	66.51	242.45
7	262766199	66.61	242.45
7	264333002	66.71	242.45
7	265932719	66.81	242.45
7	267513905	66.91	242.45
7	269090527	67.01	242.45
7	270667953	67.11	242.45
7	272258713	67.21	242.45
7	273829967	67.31	242.45
7	275409462	67.41	242.45
7	276989192	67.51	242.45
7	278558237	67.61	242.45
7	280157277	67.71	242.45
7	281730027	67.81	242.45
7	283304866	67.91	242.45
7	284895195	68.01	242.45
7	286477494	68.11	242.45
7	288054370	68.21	242.45
7	289647155	68.31	242.45
7	291219650	68.41	242.45
7	292794423	68.51	242.45
7	294385403	68.61	242.45
7	295953918	68.71	242.45
7	297545961	68.81	242.45
7	299124376	68.91	242.45
7	300700478	69.01	242.45
7	302279590	69.11	242.45
7	303877224	69.21	242.45
7	305449113	69.31	242.45
7	307031796	69.41	242.45
7	308607418	69.51	242.45
7	310162710	69.61	242.45
7	311775351	69.71	242.45
7	313363341	69.81	242.45
7	314918748	69.91	242.45
6	232	1.11	65.7802
6	666	1.21	68.5582
6	1097	1.31	71.3362
6	1530	1.41	74.1142
6	1964	1.51	76.8921
6	2398	1.61	79.6701
6	2826	1.71	82.448
6	3250	1.81	85.226
6	3684	1.91	88.0039
6	4112	2.01	90.7818
6	4530	2.11	93.5597
6	4951	2.21	96.3375
6	5381	2.31	99.1154
6	5814	2.41	101.893
6	6241	2.51	104.671
6	6671	2.61	107.449
6	7089	2.71	110.227
6	7522	2.81	113.005
6	7955	2.91	115.782
6	8386	3.01	118.56
6	8816	3.11	121.338
6	9240	3.21	124.116
6	9667	3.31	126.894
6	10094	3.41	129.671
6	10524	3.51	132.449
6	10957	3.61	135.227
6	11390	3.71	138.005
6	11823	3.81	140.782
6	12253	3.91	143.56
6	12681	4.01	146.338
6	13105	4.11	149.116
6	13526	4.21	151.893
6	13956	4.31	154.671
6	14377	4.41	157.449
6	14804	4.51	160.227
6	15237	4.61	163.005
6	15664	4.71	165.782
6	16097	4.81	168.56
6	16527	4.91	171.338
6	16961	5.01	174.116
6	17394	5.11	176.893
6	17827	5.21	179.671
6	18251	5.31	182.449
6	18684	5.41	185.227
6	19111	5.51	188.005
6	19544	5.61	190.782
6	19968	5.71	193.56
6	20395	5.81	196.338
6	20822	5.91	199.116
6	21256	6.01	201.893
6	21686	6.11	204.671
6	22113	6.21	207.449
6	22543	6.31	210.227
6	22967	6.41	213.005
6	23391	6.51	215.782
6	23818	6.61	218.56
6	24251	6.71	221.338
6	24684	6.81	224.116
6	25111	6.91	226.893
6	25551	7.01	229.671
6	25984	7.11	232.449
6	26399	7.21	235.227
6	26829	7.31	238.005
6	27262	7.41	240.782
6	27692	7.51	243.56
6	28119	7.61	246.338
6	28552	7.71	249.116
6	28976	7.81	251.893
6	29397	7.91	254.671
6	29837	8.01	257.449
6	30270	8.11	260.227
6	30703	8.21	263.005
6	31133	8.31	265.782
6	31560	8.41	268.56
6	31993	8.51	271.338
6	32417	8.61	274.116
6	32850	8.71	276.893
6	33274	8.81	279.671
6	33704	8.91	282.449
6	34132	9.01	285.227
6	34565	9.11	288.005
6	34986	9.21	290.782
6	35419	9.31	293.56
6	35846	9.41	296.338
6	36267	9.51	299.116
6	36694	9.61	301.893
6	37127	9.71	304.671
6	37557	9.81	307.449
6	37990	9.91	310.227
6	38427	10.01	313.005
6	38860	10.11	315.782
6	39293	10.21	318.56
6	39720	10.31	321.338
6	40153	10.41	324.116
6	40577	10.51	326.894
6	41001	10.61	329.671
6	41434	10.71	332.449
6	41861	10.81	335.227
6	42291	10.91	338.005
6	42731	11.01	340.782
6	43164	11.11	343.56
6	43597	11.21	346.338
6	44030	11.31	349.116
6	44463	11.41	351.894
6	44887	11.51	354.671
6	45320	11.61	357.449
6	45753	11.71	360.227
6	46180	11.81	363.005
6	46613	11.91	365.782
6	47050	12.01	368.56
6	47483	12.11	371.338
6	47910	12.21	374.116
6	48340	12.31	376.894
6	48764	12.41	379.671
6	49191	12.51	382.449
6	49624	12.61	385.227
6	50051	12.71	388.005
6	50472	12.81	390.782
6	50905	12.91	393.56
6	51342	13.01	396.338
6	51772	13.11	399.116
6	52187	13.21	401.894
6	52614	13.31	404.671
6	53047	13.41	407.449
6	53471	13.51	410.227
6	53904	13.61	413.005
6	54337	13.71	415.782
6	54770	13.81	418.56
6	55203	13.91	421.338
6	55643	14.01	424.116
6	56058	14.11	426.894
6	56491	14.21	429.671
6	56918	14.31	432.449
6	57351	14.41	435.227
6	57778	14.51	438.005
6	58193	14.61	440.782
6	58617	14.71	443.56
6	59038	14.81	446.338
6	59468	14.91	449.116
6	59890	15.01	451.894
6	60323	15.11	454.671
6	60756	15.21	457.449
6	61183	15.31	460.227
6	61607	15.41	463.005
6	62040	15.51	465.783
6	62473	15.61	468.56
6	62900	15.71	471.338
6	63321	15.81	474.116
6	63754	15.91	476.894
6	64194	16.01	479.671
6	64621	16.11	482.449
6	65054	16.21	485.227
6	65478	16.31	488.005
6	65905	16.41	490.783
6	66332	16.51	493.56
6	66765	16.61	496.338
6	67186	16.71	499.116
6	67616	16.81	501.894
6	68037	16.91	504.671
6	68468	17.01	507.449
6	68895	17.11	510.227
6	69322	17.21	513.005
6	69755	17.31	515.783
6	70188	17.41	518.56
6	70618	17.51	521.338
6	71042	17.61	524.116
6	71475	17.71	526.894
6	71908	17.81	529.671
6	72329	17.91	532.449
6	72769	18.01	535.227
6	73202	18.11	538.005
6	73629	18.21	540.783
6	74053	18.31	543.56
6	74486	18.41	546.338
6	74913	18.51	549.116
6	75346	18.61	551.894
6	75779	18.71	554.671
6	76212	18.81	557.449
6	76645	18.91	560.227
6	77067	19.01	563.005
6	77500	19.11	565.783
6	77933	19.21	568.56
6	78366	19.31	571.338
6	78799	19.41	574.116
6	79232	19.51	576.894
6	79656	19.61	579.671
6	80074	19.71	582.449
6	80501	19.81	585.227
6	80928	19.91	588.005
6	81368	20.01	590.783
6	81801	20.11	593.56
6	82234	20.21	596.338
6	82664	20.31	599.116
6	83091	20.41	601.894
6	83518	20.51	604.672
6	83945	20.61	607.449
6	84372	20.71	610.227
6	84799	20.81	613.005
6	85214	20.91	615.783
6	85654	21.01	618.56
6	86087	21.11	621.338
6	86517	21.21	624.116
6	86950	21.31	626.894
6	87383	21.41	629.672
6	87810	21.51	632.449
6	88243	21.61	635.227
6	88667	21.71	638.005
6	89097	21.81	640.783
6	89527	21.91	643.56
6	89958	22.01	646.338
6	90379	22.11	649.116
6	90806	22.21	651.894
6	91239	22.31	654.672
6	91666	22.41	657.449
6	92093	22.51	660.227
6	92520	22.61	663.005
6	92944	22.71	665.783
6	93362	22.81	668.56
6	93795	22.91	671.338
6	94223	23.01	674.116
6	94650	23.11	676.894
6	95077	23.21	679.672
6	95510	23.31	682.449
6	95940	23.41	685.227
6	96370	23.51	688.005
6	96797	23.61	690.783
6	97224	23.71	693.56
6	97657	23.81	696.338
6	98090	23.91	699.116
6	98524	24.01	701.894
6	98957	24.11	704.672
6	99387	24.21	707.449
6	99817	24.31	710.227
6	100247	24.41	713.005
6	100665	24.51	715.783
6	101083	24.61	718.56
6	101513	24.71	721.338
6	101946	24.81	724.116
6	102373	24.91	726.894
6	102807	25.01	729.672
6	103237	25.11	732.449
6	103643	25.21	735.227
6	104067	25.31	738.005
6	104500	25.41	740.783
6	104933	25.51	743.561
6	105363	25.61	746.338
6	105796	25.71	749.116
6	106229	25.81	751.894
6	106659	25.91	754.672
6	107093	26.01	757.449
6	107523	26.11	760.227
6	107944	26.21	763.005
6	108374	26.31	765.783
6	108804	26.41	768.561
6	109228	26.51	771.338
6	109655	26.61	774.116
6	110082	26.71	776.894
6	110506	26.81	779.672
6	110939	26.91	782.449
6	111379	27.01	785.227
6	111806	27.11	788.005
6	112227	27.21	790.783
6	112660	27.31	793.561
6	113087	27.41	796.338
6	113511	27.51	799.116
6	113938	27.61	801.894
6	114371	27.71	804.672
6	114792	27.81	807.449
6	115225	27.91	810.227
6	115665	28.01	813.005
6	116095	28.11	815.783
6	116522	28.21	818.561
6	116955	28.31	821.338
6	117388	28.41	824.116
6	117812	28.51	826.894
6	118245	28.61	829.672
6	118675	28.71	832.449
6	119102	28.81	835.227
6	119535	28.91	838.005
6	119975	29.01	840.783
6	120408	29.11	843.561
6	120841	29.21	846.338
6	121262	29.31	849.116
6	121686	29.41	851.894
6	122119	29.51	854.672
6	122546	29.61	857.449
6	122970	29.71	860.227
6	123400	29.81	863.005
6	123833	29.91	865.783
6	124264	30.01	868.561
6	124679	30.11	871.338
6	125106	30.21	874.116
6	125539	30.31	876.894
6	125951	30.41	879.672
6	126369	30.51	882.45
6	126799	30.61	885.227
6	127220	30.71	888.005
6	127635	30.81	890.783
6	128059	30.91	893.561
6	128493	31.01	896.338
6	128926	31.11	899.116
6	129359	31.21	901.894
6	129780	31.31	904.672
6	130201	31.41	907.45
6	130634	31.51	910.227
6	131055	31.61	913.005
6	131482	31.71	915.783
6	131903	31.81	918.561
6	132330	31.91	921.338
6	132758	32.01	924.116
6	133179	32.11	926.894
6	133612	32.21	929.672
6	134042	32.31	932.45
6	134469	32.41	935.227
6	134896	32.51	938.005
6	135323	32.61	940.783
6	135750	32.71	943.561
6	136177	32.81	946.338
6	136610	32.91	949.116
6	137047	33.01	951.894
6	137477	33.11	954.672
6	137901	33.21	957.45
6	138328	33.31	960.227
6	138755	33.41	963.005
6	139188	33.51	965.783
6	139609	33.61	968.561
6	140036	33.71	971.338
6	140463	33.81	974.116
6	140893	33.91	976.894
6	141327	34.01	979.672
6	141754	34.11	982.45
6	142187	34.21	985.227
6	142614	34.31	988.005
6	143047	34.41	990.783
6	143474	34.51	993.561
6	143901	34.61	996.338
6	144334	34.71	999.116
6	144767	34.81	1001.89
6	145194	34.91	1004.67
6	145622	35.01	1007.45
6	146046	35.11	1010.23
6	146464	35.21	1013.01
6	146894	35.31	1015.78
6	147306	35.41	1018.56
6	147730	35.51	1021.34
6	148163	35.61	1024.12
6	148584	35.71	1026.89
6	149008	35.81	1029.67
6	149441	35.91	1032.45
6	149881	36.01	1035.23
6	150311	36.11	1038.01
6	150738	36.21	1040.78
6	151171	36.31	1043.56
6	151604	36.41	1046.34
6	152031	36.51	1049.12
6	152461	36.61	1051.89
6	152894	36.71	1054.67
6	153327	36.81	1057.45
6	153748	36.91	1060.23
6	154188	37.01	1063.01
6	154621	37.11	1065.78
6	155048	37.21	1068.56
6	155481	37.31	1071.34
6	155908	37.41	1074.12
6	156341	37.51	1076.89
6	156768	37.61	1079.67
6	157195	37.71	1082.45
6	157628	37.81	1085.23
6	158055	37.91	1088.01
6	158477	38.01	1090.78
6	158898	38.11	1093.56
6	159325	38.21	1096.34
6	159755	38.31	1099.12
6	160188	38.41	1101.89
6	160615	38.51	1104.67
6	161039	38.61	1107.45
6	161472	38.71	1110.23
6	161890	38.81	1113.01
6	162323	38.91	1115.78
6	162757	39.01	1118.56
6	163181	39.11	1121.34
6	163614	39.21	1124.12
6	164041	39.31	1126.89
6	164474	39.41	1129.67
6	164907	39.51	1132.45
6	165340	39.61	1135.23
6	165761	39.71	1138.01
6	166191	39.81	1140.78
6	166624	39.91	1143.56
6	167058	40.01	1146.34
6	167491	40.11	1149.12
6	167924	40.21	1151.89
6	168357	40.31	1154.67
6	168784	40.41	1157.45
6	169211	40.51	1160.23
6	169635	40.61	1163.01
6	170062	40.71	1165.78
6	170486	40.81	1168.56
6	170913	40.91	1171.34
6	171347	41.01	1174.12
6	171765	41.11	1176.89
6	172198	41.21	1179.67
6	172625	41.31	1182.45
6	173058	41.41	1185.23
6	173479	41.51	1188.01
6	173912	41.61	1190.78
6	174342	41.71	1193.56
6	174760	41.81	1196.34
6	175193	41.91	1199.12
6	175600	42.01	1201.89
6	176027	42.11	1204.67
6	176457	42.21	1207.45
6	176884	42.31	1210.23
6	177311	42.41	1213.01
6	177735	42.51	1215.78
6	178162	42.61	1218.56
6	178583	42.71	1221.34
6	179016	42.81	1224.12
6	179437	42.91	1226.89
6	179865	43.01	1229.67
6	180295	43.11	1232.45
6	180725	43.21	1235.23
6	181155	43.31	1238.01
6	181588	43.41	1240.78
6	182021	43.51	1243.56
6	182451	43.61	1246.34
6	182872	43.71	1249.12
6	183299	43.81	1251.89
6	183729	43.91	1254.67
6	184166	44.01	1257.45
6	184587	44.11	1260.23
6	185017	44.21	1263.01
6	185435	44.31	1265.78
6	185856	44.41	1268.56
6	186280	44.51	1271.34
6	186713	44.61	1274.12
6	187131	44.71	1276.89
6	187564	44.81	1279.67
6	187991	44.91	1282.45
6	188425	45.01	1285.23
6	188849	45.11	1288.01
6	189276	45.21	1290.78
6	189703	45.31	1293.56
6	190136	45.41	1296.34
6	190563	45.51	1299.12
6	190996	45.61	1301.89
6	191423	45.71	1304.67
6	191856	45.81	1307.45
6	192286	45.91	1310.23
6	192720	46.01	1313.01
6	193147	46.11	1315.78
6	193574	46.21	1318.56
6	194007	46.31	1321.34
6	194437	46.41	1324.12
6	194867	46.51	1326.89
6	195297	46.61	1329.67
6	195730	46.71	1332.45
6	196160	46.81	1335.23
6	196587	46.91	1338.01
6	197021	47.01	1340.78
6	197454	47.11	1343.56
6	197875	47.21	1346.34
6	198299	47.31	1349.12
6	198732	47.41	1351.89
6	199159	47.51	1354.67
6	199586	47.61	1357.45
6	200016	47.71	1360.23
6	200443	47.81	1363.01
6	200876	47.91	1365.78
6	201316	48.01	1368.56
6	201749	48.11	1371.34
6	202182	48.21	1374.12
6	202588	48.31	1376.89
6	203015	48.41	1379.67
6	203427	48.51	1382.45
6	203848	48.61	1385.23
6	204281	48.71	1388.01
6	204708	48.81	1390.78
6	205138	48.91	1393.56
6	205578	49.01	1396.34
6	206008	49.11	1399.12
6	206438	49.21	1401.89
6	206871	49.31	1404.67
6	207304	49.41	1407.45
6	207731	49.51	1410.23
6	208152	49.61	1413.01
6	208570	49.71	1415.78
6	208994	49.81	1418.56
6	209421	49.91	1421.34
6	209856	50.01	1424.12
6	1718024	50.11	1426.89
6	3295339	50.21	1429.67
6	4881148	50.31	1432.45
6	6454162	50.41	1435.23
6	8046667	50.51	1438.01
6	9618211	50.61	1440.78
6	11199998	50.71	1443.56
6	12782760	50.81	1446.34
6	14367430	50.91	1449.12
6	15964118	51.01	1451.89
6	17550966	51.11	1454.67
6	19114312	51.21	1457.45
6	20686248	51.31	1460.23
6	22289246	51.41	1463.01
6	23857276	51.51	1465.78
6	25453949	51.61	1468.56
6	27031005	51.71	1471.34
6	28623016	51.81	1474.12
6	30198198	51.91	1476.89
6	31778019	52.01	1479.67
6	33370788	52.11	1482.45
6	34962777	52.21	1485.23
6	36536410	52.31	1488.01
6	38111833	52.41	1490.78
6	39691886	52.51	1493.56
6	41268214	52.61	1496.34
6	42849537	52.71	1499.12
6	44435018	52.81	1501.89
6	46003650	52.91	1504.67
6	47603787	53.01	1507.45
6	49189859	53.11	1510.23
6	50764359	53.21	1513.01
6	52355039	53.31	1515.78
6	53922767	53.41	1518.56
6	55518630	53.51	1521.34
6	57102754	53.61	1524.12
6	58682664	53.71	1526.89
6	60264624	53.81	1529.67
6	61847366	53.91	1532.45
6	63426583	54.01	1535.23
6	65005424	54.11	1538.01
6	66590054	54.21	1540.78
6	68170645	54.31	1543.56
6	69760023	54.41	1546.34
6	71329498	54.51	1549.12
6	72926544	54.61	1551.89
6	74510760	54.71	1554.67
6	76090880	54.81	1557.45
6	77686320	54.91	1560.23
6	79266907	55.01	1563.01
6	80849268	55.11	1565.78
6	82421189	55.21	1568.56
6	84003335	55.31	1571.34
6	85584627	55.41	1574.12
6	87174527	55.51	1576.89
6	88743532	55.61	1579.67
6	90342839	55.71	1582.45
6	91916449	55.81	1585.23
6	93511819	55.91	1588.01
6	95095142	56.01	1590.78
6	96665673	56.11	1593.56
6	98255021	56.21	1596.34
6	99844391	56.31	1599.12
6	101412909	56.41	1601.89
6	103001542	56.51	1604.67
6	104576766	56.61	1607.45
6	106171148	56.71	1610.23
6	107762908	56.81	1613.01
6	109328673	56.91	1615.78
6	110916830	57.01	1618.56
6	112494278	57.11	1621.34
6	114073000	57.21	1624.12
6	115662821	57.31	1626.89
6	117233354	57.41	1629.67
6	118819745	57.51	1632.45
6	120406667	57.61	1635.23
6	121974833	57.71	1638.01
6	123572208	57.81	1640.78
6	125149330	57.91	1643.56
6	126715569	58.01	1646.34
6	128302280	58.11	1649.12
6	129882692	58.21	1651.89
6	131458447	58.31	1654.67
6	133044804	58.41	1657.45
6	134635901	58.51	1660.23
6	136199884	58.61	1663.01
6	137782740	58.71	1665.78
6	139372425	58.81	1668.56
6	140944216	58.91	1671.34
6	142536749	59.01	1674.12
6	144133056	59.11	1676.89
6	145689997	59.21	1679.67
6	147278968	59.31	1682.45
6	148851741	59.41	1685.23
6	150428183	59.51	1688.01
6	152037108	59.61	1690.78
6	153607718	59.71	1693.56
6	155196287	59.81	1696.34
6	156769648	59.91	1699.12
6	158355180	60.01	1701.89
6	159935756	60.11	1704.67
6	161510253	60.21	1707.43
6	163091794	60.31	1710.16
6	164679756	60.41	1712.85
6	166268219	60.51	1715.5
6	167850026	60.61	1718.1
6	169427434	60.71	1720.64
6	171006968	60.81	1723.12
6	172601355	60.91	1725.54
6	174176685	61.01	1727.89
6	175749681	61.11	1730.17
6	177340094	61.21	1732.38
6	178926558	61.31	1734.51
6	180500760	61.41	1736.57
6	182081157	61.51	1738.56
6	183664968	61.61	1740.47
6	185245971	61.71	1742.31
6	186829784	61.81	1744.07
6	188406599	61.91	1745.75
6	190000890	62.01	1747.35
6	191568130	62.11	1748.87
6	193155013	62.21	1750.31
6	194727982	62.31	1751.68
6	196317326	62.41	1752.97
6	197903938	62.51	1754.17
6	199470490	62.61	1755.3
6	201066456	62.71	1756.35
6	202629789	62.81	1757.32
6	204219617	62.91	1758.2
6	205803928	63.01	1759.01
6	207376467	63.11	1759.74
6	208954751	63.21	1760.39
6	210544960	63.31	1760.96
6	212136903	63.41	1761.45
6	213719388	63.51	1761.86
6	215310160	63.61	1762.19
6	216885855	63.71	1762.44
6	218471424	63.81	1762.61
6	220055395	63.91	1762.7
6	221634469	64.01	1762.71
6	223229458	64.11	1762.71
6	224782200	64.21	1762.71
6	226386457	64.31	1762.71
6	227977115	64.41	1762.71
6	229539980	64.51	1762.71
6	231134517	64.61	1762.71
6	232705180	64.71	1762.71
6	234299796	64.81	1762.71
6	235892966	64.91	1762.71
6	237461077	65.01	1762.71
6	239041823	65.11	1762.71
6	240627088	65.21	1762.71
6	242214284	65.31	1762.71
6	243772962	65.41	1762.71
6	245369185	65.51	1762.71
6	246945728	65.61	1762.71
6	248531723	65.71	1762.71
6	250114526	65.81	1762.71
6	251693908	65.91	1762.71
6	253270024	66.01	1762.71
6	254872170	66.11	1762.71
6	256435522	66.21	1762.71
6	258018303	66.31	1762.71
6	259601681	66.41	1762.71
6	261189442	66.51	1762.71
6	262766199	66.61	1762.71
6	264333002	66.71	1762.71
6	265932719	66.81	1762.71
6	267513905	66.91	1762.71
6	269090527	67.01	1762.71
6	270667953	67.11	1762.71
6	272258713	67.21	1762.71
6	273829967	67.31	1762.71
6	275409462	67.41	1762.71
6	276989192	67.51	1762.71
6	278558237	67.61	1762.71
6	280157277	67.71	1762.71
6	281730027	67.81	1762.71
6	283304866	67.91	1762.71
6	284895195	68.01	1762.71
6	286477494	68.11	1762.71
6	288054370	68.21	1762.71
6	289647155	68.31	1762.71
6	291219650	68.41	1762.71
6	292794423	68.51	1762.71
6	294385403	68.61	1762.71
6	295953918	68.71	1762.71
6	297545961	68.81	1762.71
6	299124376	68.91	1762.71
6	300700478	69.01	1762.71
6	302279590	69.11	1762.71
6	303877224	69.21	1762.71
6	305449113	69.31	1762.71
6	307031796	69.41	1762.71
6	308607418	69.51	1762.71
6	310162710	69.61	1762.71
6	311775351	69.71	1762.71
6	313363341	69.81	1762.71
6	314918748	69.91	1762.71
5	232	1.11	27.78
5	666	1.21	27.7799
5	1097	1.31	27.7798
5	1530	1.41	27.7797
5	1964	1.51	27.7796
5	2398	1.61	27.7795
5	2826	1.71	27.7794
5	3250	1.81	27.7792
5	3684	1.91	27.7791
5	4112	2.01	27.7789
5	4530	2.11	27.7788
5	4951	2.21	27.7787
5	5381	2.31	27.7785
5	5814	2.41	27.7784
5	6241	2.51	27.7783
5	6671	2.61	27.7782
5	7089	2.71	27.7782
5	7522	2.81	27.7781
5	7955	2.91	27.778
5	8386	3.01	27.7779
5	8816	3.11	27.7779
5	9240	3.21	27.7779
5	9667	3.31	27.7778
5	10094	3.41	27.7778
5	10524	3.51	27.7778
5	10957	3.61	27.7777
5	11390	3.71	27.7777
5	11823	3.81	27.7777
5	12253	3.91	27.7777
5	12681	4.01	27.7777
5	13105	4.11	27.7777
5	13526	4.21	27.7777
5	13956	4.31	27.7777
5	14377	4.41	27.7777
5	14804	4.51	27.7777
5	15237	4.61	27.7777
5	15664	4.71	27.7777
5	16097	4.81	27.7777
5	16527	4.91	27.7777
5	16961	5.01	27.7777
5	17394	5.11	27.7777
5	17827	5.21	27.7778
5	18251	5.31	27.7778
5	18684	5.41	27.7778
5	19111	5.51	27.7778
5	19544	5.61	27.7778
5	19968	5.71	27.7778
5	20395	5.81	27.7778
5	20822	5.91	27.7778
5	21256	6.01	27.7778
5	21686	6.11	27.7778
5	22113	6.21	27.7778
5	22543	6.31	27.7778
5	22967	6.41	27.7778
5	23391	6.51	27.7778
5	23818	6.61	27.7778
5	24251	6.71	27.7778
5	24684	6.81	27.7778
5	25111	6.91	27.7778
5	25551	7.01	27.7778
5	25984	7.11	27.7778
5	26399	7.21	27.7778
5	26829	7.31	27.7778
5	27262	7.41	27.7778
5	27692	7.51	27.7778
5	28119	7.61	27.7778
5	28552	7.71	27.7778
5	28976	7.81	27.7778
5	29397	7.91	27.7778
5	29837	8.01	27.7778
5	30270	8.11	27.7778
5	30703	8.21	27.7778
5	31133	8.31	27.7778
5	31560	8.41	27.7778
5	31993	8.51	27.7778
5	32417	8.61	27.7778
5	32850	8.71	27.7778
5	33274	8.81	27.7778
5	33704	8.91	27.7778
5	34132	9.01	27.7778
5	34565	9.11	27.7778
5	34986	9.21	27.7778
5	35419	9.31	27.7778
5	35846	9.41	27.7778
5	36267	9.51	27.7778
5	36694	9.61	27.7778
5	37127	9.71	27.7778
5	37557	9.81	27.7778
5	37990	9.91	27.7778
5	38427	10.01	27.7778
5	38860	10.11	27.7778
5	39293	10.21	27.7778
5	39720	10.31	27.7778
5	40153	10.41	27.7778
5	40577	10.51	27.7778
5	41001	10.61	27.7778
5	41434	10.71	27.7778
5	41861	10.81	27.7778
5	42291	10.91	27.7778
5	42731	11.01	27.7778
5	43164	11.11	27.7778
5	43597	11.21	27.7778
5	44030	11.31	27.7778
5	44463	11.41	27.7778
5	44887	11.51	27.7778
5	45320	11.61	27.7778
5	45753	11.71	27.7778
5	46180	11.81	27.7778
5	46613	11.91	27.7778
5	47050	12.01	27.7778
5	47483	12.11	27.7778
5	47910	12.21	27.7778
5	48340	12.31	27.7778
5	48764	12.41	27.7778
5	49191	12.51	27.7778
5	49624	12.61	27.7778
5	50051	12.71	27.7778
5	50472	12.81	27.7778
5	50905	12.91	27.7778
5	51342	13.01	27.7778
5	51772	13.11	27.7778
5	52187	13.21	27.7778
5	52614	13.31	27.7778
5	53047	13.41	27.7778
5	53471	13.51	27.7778
5	53904	13.61	27.7778
5	54337	13.71	27.7778
5	54770	13.81	27.7778
5	55203	13.91	27.7778
5	55643	14.01	27.7778
5	56058	14.11	27.7778
5	56491	14.21	27.7778
5	56918	14.31	27.7778
5	57351	14.41	27.7778
5	57778	14.51	27.7778
5	58193	14.61	27.7778
5	58617	14.71	27.7778
5	59038	14.81	27.7778
5	59468	14.91	27.7778
5	59890	15.01	27.7778
5	60323	15.11	27.7778
5	60756	15.21	27.7778
5	61183	15.31	27.7778
5	61607	15.41	27.7778
5	62040	15.51	27.7778
5	62473	15.61	27.7778
5	62900	15.71	27.7778
5	63321	15.81	27.7778
5	63754	15.91	27.7778
5	64194	16.01	27.7778
5	64621	16.11	27.7778
5	65054	16.21	27.7778
5	65478	16.31	27.7778
5	65905	16.41	27.7778
5	66332	16.51	27.7778
5	66765	16.61	27.7778
5	67186	16.71	27.7778
5	67616	16.81	27.7778
5	68037	16.91	27.7778
5	68468	17.01	27.7778
5	68895	17.11	27.7778
5	69322	17.21	27.7778
5	69755	17.31	27.7778
5	70188	17.41	27.7778
5	70618	17.51	27.7778
5	71042	17.61	27.7778
5	71475	17.71	27.7778
5	71908	17.81	27.7778
5	72329	17.91	27.7778
5	72769	18.01	27.7778
5	73202	18.11	27.7778
5	73629	18.21	27.7778
5	74053	18.31	27.7778
5	74486	18.41	27.7778
5	74913	18.51	27.7778
5	75346	18.61	27.7778
5	75779	18.71	27.7778
5	76212	18.81	27.7778
5	76645	18.91	27.7778
5	77067	19.01	27.7778
5	77500	19.11	27.7778
5	77933	19.21	27.7778
5	78366	19.31	27.7778
5	78799	19.41	27.7778
5	79232	19.51	27.7778
5	79656	19.61	27.7778
5	80074	19.71	27.7778
5	80501	19.81	27.7778
5	80928	19.91	27.7778
5	81368	20.01	27.7778
5	81801	20.11	27.7778
5	82234	20.21	27.7778
5	82664	20.31	27.7778
5	83091	20.41	27.7778
5	83518	20.51	27.7778
5	83945	20.61	27.7778
5	84372	20.71	27.7778
5	84799	20.81	27.7778
5	85214	20.91	27.7778
5	85654	21.01	27.7778
5	86087	21.11	27.7778
5	86517	21.21	27.7778
5	86950	21.31	27.7778
5	87383	21.41	27.7778
5	87810	21.51	27.7778
5	88243	21.61	27.7778
5	88667	21.71	27.7778
5	89097	21.81	27.7778
5	89527	21.91	27.7778
5	89958	22.01	27.7778
5	90379	22.11	27.7778
5	90806	22.21	27.7778
5	91239	22.31	27.7778
5	91666	22.41	27.7778
5	92093	22.51	27.7778
5	92520	22.61	27.7778
5	92944	22.71	27.7778
5	93362	22.81	27.7778
5	93795	22.91	27.7778
5	94223	23.01	27.7778
5	94650	23.11	27.7778
5	95077	23.21	27.7778
5	95510	23.31	27.7778
[...]
84	62844761	53.9728565227	6
84	64342124	54.067710166794	6
84	75438478	54.768320147602	6
84	77002425	54.86711126756	6
84	78604358	54.968530393007	6
84	80231172	55.071550528912	6
84	83388636	55.270330189891	6
84	84983656	55.371718148589	6
84	89691589	55.669228541575	6
84	91283325	55.769183547664	6
84	94465492	55.970042948418	6
84	100841412	56.37352071563	6
84	102386774	56.470883476966	6
84	103974469	56.571700633216	6
84	107111639	56.769425836657	6
84	108709009	56.870401080033	6
84	111854539	57.069066539199	6
84	113475654	57.171504954788	6
84	115041196	57.270863682684	6
84	116613673	57.370652990079	6
84	121392454	57.672837408574	6
84	122895929	57.767089686428	6
84	126082969	57.969305352429	6
84	130927124	58.275494784381	6
84	137162398	58.669737742262	6
84	141855920	58.966877194063	6
84	143465293	59.068394218675	6
84	145083427	59.170387341244	6
84	146694932	59.273230259508	6
84	148256498	59.371474608469	6
84	154545901	59.768582459813	6
84	157807415	59.97589649235	6
84	159384185	60.074777398442	6
84	160851715	60.168002632256	6
84	170420915	60.772801039772	6
84	175167986	61.072833392921	6
84	179877832	61.370873747885	6
84	184643805	61.671911081713	6
84	186173015	61.769318686147	6
84	190904945	62.067861326612	6
84	192471248	62.166933312793	6
84	195657440	62.368130450746	6
84	200471897	62.672836188788	6
84	203535887	62.866914506699	6
84	205258154	62.975509844804	6
84	206768711	63.070783801629	6
84	208364316	63.171684667481	6
84	213070427	63.469097314857	6
84	216245854	63.669375394185	6
84	227290106	64.366928019346	6
84	228971216	64.473419891685	6
84	232131046	64.673216117712	6
84	238355799	65.066914240879	6
84	239993739	65.169898096783	6
84	244791799	65.472830307871	6
84	246386770	65.574686957415	6
84	251039469	65.86863930628	6
84	254177826	66.067388079336	6
84	255877009	66.17349270985	6
84	257409150	66.271755419031	6
84	259036158	66.374709276277	6
84	262102369	66.568339742422	6
84	263675701	66.667273499377	6
84	270035337	67.068718664322	6
84	271612713	67.169529769125	6
84	274897994	67.37731786287	6
84	276446246	67.475642289801	6
84	277924990	67.569442479232	6
84	279531463	67.670807407575	6
84	281190197	67.77570768811	6
84	282632019	67.866887681556	6
84	284248604	67.968772044759	6
84	292187542	68.470752248889	6
84	295398884	68.674827712104	6
84	296873181	68.767711376895	6
84	298447700	68.867378511312	6
84	301631894	69.068686193987	6
84	303193764	69.167434644363	6
84	309615891	69.573515764049	6
84	312720361	69.770518781563	6
84	314382333	69.87564344891	6
84	315896077	69.970764295679	6
78	792	1.241988677134	6
78	1226	1.341983144124	6
78	1659	1.441990611119	6
78	2093	1.541985078124	6
78	2527	1.641992545149	6
78	2952	1.741990918808	6
78	3379	1.841985385907	6
78	3807	1.941992853064	6
78	4235	2.041991180176	6
78	4647	2.141989647479	6
78	5080	2.241984114908	6
78	5510	2.341991582462	6
78	5937	2.441986050162	6
78	6370	2.541993518025	6
78	6788	2.641987986068	6
78	7218	2.741995454313	6
78	7651	2.84198992278	6
78	8078	2.941984391483	6
78	8515	3.041991860443	6
78	8939	3.141986329678	6
78	9369	3.241993799209	6
78	10223	3.441982739227	6
78	10653	3.541990209748	6
78	11086	3.641984680634	6
78	11519	3.741992151905	6
78	11952	3.841986623574	6
78	12376	3.941994095659	6
78	12810	4.041992474594	6
78	13228	4.141990947485	6
78	13655	4.241985420913	6
78	14085	4.341992894819	6
78	14506	4.441991226879	6
78	14933	4.541985701787	6
78	15360	4.64199317722	6
78	15793	4.741987653189	6
78	16226	4.841995129709	6
78	17090	5.04198408445	6
78	17523	5.141991562699	6
78	17956	5.241986041548	6
78	18380	5.341984520998	6
78	18813	5.441992001086	6
78	19240	5.54199033922	6
78	19670	5.641984820592	6
78	20097	5.741983159753	6
78	20524	5.841990642452	6
78	20951	5.941985125831	6
78	21809	6.141987094667	6
78	22242	6.241994580141	6
78	22672	6.34198906633	6
78	23096	6.441983553246	6
78	23520	6.541991040898	6
78	23947	6.64198552929	6
78	24380	6.741993018432	6
78	24813	6.841987508331	6
78	25240	6.941994998997	6
78	25680	7.041989490434	6
78	26113	7.14198398265	6
78	26528	7.241991475651	6
78	26958	7.341985969444	6
78	27391	7.441993464035	6
78	27821	7.541987959429	6
78	28248	7.641995455635	6
78	28678	7.741989952654	6
78	29099	7.841984450493	6
78	29526	7.941991949156	6
78	29966	8.04198644865	6
78	30399	8.141993948976	6
78	30832	8.241988450141	6
78	31262	8.341982952147	6
78	31689	8.441990454999	6
78	32119	8.5419849587	6
78	32546	8.641992463255	6
78	32976	8.741986968664	6
78	33833	8.941988982064	6
78	34261	9.041983490058	6
78	34688	9.14199099892	6
78	35115	9.241985508649	6
78	35548	9.341993019249	6
78	36396	9.541995043073	6
78	36823	9.641989556297	6
78	37686	9.841991585377	6
78	38116	9.941986101236	6
78	38556	10.041993617976	6
78	38989	10.141988135598	6
78	39422	10.2419956541	6
78	39849	10.341990173485	6
78	40276	10.441988693655	6
78	40706	10.541983214803	6
78	41130	10.641990736835	6
78	41563	10.741985259748	6
78	41987	10.841992783545	6
78	42420	10.941987308221	6
78	42860	11.04199483378	6
78	43293	11.141989360217	6
78	43726	11.241983887536	6
78	44159	11.341991415733	6
78	44592	11.441985944808	6
78	45016	11.541993474758	6
78	45449	11.641988005584	6
78	45882	11.741995537284	6
78	46309	11.841990069855	6
78	46742	11.941984603298	6
78	47179	12.041992137608	6
78	47612	12.141986672788	6
78	48036	12.241994208831	6
78	48463	12.341988745738	6
78	48893	12.441983283506	6
78	49320	12.541990822133	6
78	49747	12.641985361619	6
78	50601	12.841987443151	6
78	51034	12.941994985191	6
78	51471	13.04198952808	6
78	51895	13.141984071814	6
78	52316	13.241986399294	6
78	52743	13.341993944708	6
78	53176	13.441988490957	6
78	53600	13.541983038039	6
78	54033	13.641990585953	6
78	54466	13.741985134694	6
78	54899	13.84199268426	6
78	55332	13.941987234646	6
78	56187	14.141989337867	6
78	56620	14.241983890695	6
78	57047	14.341991444331	6
78	57480	14.441985998772	6
78	57901	14.541993554014	6
78	58322	14.641988110054	6
78	58746	14.741995666886	6
78	59167	14.841990224509	6
78	59585	14.941984782916	6
78	60019	15.041992342108	6
78	60452	15.141986902078	6
78	60885	15.241994462823	6
78	61312	15.34198902434	6
78	61736	15.441983586624	6
78	62169	15.541991149673	6
78	62599	15.641985713481	6
78	63023	15.741993278044	6
78	63450	15.84198784336	6
78	63883	15.941995409423	6
78	64323	16.04198997623	6
78	64750	16.141988376851	6
78	65180	16.241982945132	6
78	65607	16.341990514145	6
78	66034	16.441988910303	6
78	66461	16.541983480766	6
78	66882	16.641995051891	6
78	67315	16.741989623788	6
78	68163	16.941991769711	6
78	68597	17.041986343727	6
78	69024	17.141993918442	6
78	69451	17.24198849385	6
78	69884	17.34198306995	6
78	70317	17.441990646733	6
78	70747	17.541985224197	6
78	71171	17.641992802339	6
78	71604	17.741987381152	6
78	72037	17.841994960634	6
78	72458	17.94198954078	6
78	72898	18.041984121586	6
78	73331	18.141991703047	6
78	73752	18.241986285158	6
78	74182	18.341984744078	6
78	74615	18.441992327478	6
78	75042	18.541986911516	6
78	75475	18.641994496186	6
78	75908	18.741989081486	6
78	76341	18.84198366741	6
78	76768	18.941991253956	6
78	77196	19.041985841119	6
78	77629	19.141993428893	6
78	78062	19.241988017274	6
78	78495	19.34199560626	6
78	78928	19.441990195844	6
78	79361	19.541984786023	6
78	79779	19.641992376792	6
78	80203	19.741986968147	6
78	80624	19.841994560086	6
78	81057	19.941993027396	6
78	81497	20.041987620483	6
78	81930	20.14199521414	6
78	82360	20.241989808361	6
78	82790	20.341984403144	6
78	83220	20.441991998484	6
78	83647	20.541986594376	6
78	84074	20.641994190815	6
78	84495	20.741988787801	6
78	84922	20.841983385324	6
78	85343	20.941990983385	6
78	85783	21.041985581978	6
78	86216	21.141993181096	6
78	86646	21.241987780737	6
78	87079	21.341995380898	6
78	87512	21.441989981574	6
78	87939	21.541988469104	6
78	88372	21.641983070798	6
78	88796	21.741990672996	6
78	89223	21.841985275691	6
78	89653	21.941992878883	6
78	90081	22.041987482564	6
78	90508	22.141995086735	6
78	90935	22.241989691386	6
78	91368	22.341984296517	6
78	91795	22.441991902123	6
78	92222	22.541986508198	6
78	93067	22.741992541873	6
78	93491	22.841987149342	6
78	93921	22.941994757266	6
78	94349	23.041989365642	6
78	94779	23.141983974468	6
78	95206	23.241991583737	6
78	95639	23.341986193446	6
78	96069	23.441993803594	6
78	96493	23.541988414174	6
78	96926	23.641983025183	6
78	97353	23.74199063662	6
78	97786	23.841985248479	6
78	98213	23.941992860755	6
78	98653	24.041987473445	6
78	99083	24.141995086549	6
78	99516	24.241989700062	6
78	99946	24.341984313978	6
78	100370	24.441991928293	6
78	100788	24.541986543007	6
78	101209	24.641984971282	6
78	101642	24.741992586782	6
78	102075	24.841987202668	6
78	102502	24.941994818938	6
78	102936	25.041989435589	6
78	103366	25.141984052615	6
78	103766	25.241995551931	6
78	104196	25.3419901697	6
78	104629	25.441984787838	6
78	105062	25.541992406339	6
78	105492	25.641987025198	6
78	105925	25.741994644415	6
78	106355	25.841989263986	6
78	106788	25.941983883911	6
78	107222	26.041991504182	6
78	108073	26.241993745751	6
78	108503	26.341988367045	6
78	108927	26.441982988673	6
78	109357	26.541990610634	6
78	109784	26.641989047641	6
78	110635	26.841991293193	6
78	111068	26.941985916449	6
78	111502	27.041993540024	6
78	111929	27.141988163913	6
78	112356	27.241982788112	6
78	112789	27.341990412618	6
78	113216	27.44198503743	6
78	113640	27.541992662543	6
78	114067	27.641987287957	6
78	114500	27.741994913666	6
78	114921	27.84198953967	6
78	115354	27.941984165964	6
78	115791	28.041991792546	6
78	116224	28.141986419415	6
78	116651	28.241994046568	6
78	117084	28.341988674001	6
78	117511	28.44198330171	6
78	117941	28.541990929694	6
78	118374	28.64198555795	6
78	118804	28.741993186476	6
78	119231	28.841987815268	6
78	119664	28.941995444325	6
78	120104	29.041990073642	6
78	120537	29.141984703221	6
78	120964	29.241983333044	6
78	121382	29.341990963134	6
78	121815	29.441985593476	6
78	122248	29.541993224066	6
78	122675	29.641987854903	6
78	123099	29.741995485986	6
78	123529	29.841990117311	6
78	123962	29.941984748876	6
78	124802	30.141994890195	6
78	125235	30.241989522466	6
78	125668	30.341984154967	6
78	126071	30.441982787684	6
78	126498	30.541990420638	6
78	126928	30.641985053816	6
78	127343	30.741983687205	6
78	127758	30.841991320825	6
78	128188	30.941985954661	6
78	128622	31.041993588713	6
78	129055	31.141988222978	6
78	129482	31.241982857453	6
78	129909	31.341990492137	6
78	130330	31.441985127026	6
78	130763	31.541992762122	6
78	131184	31.641987397421	6
78	131605	31.741985840802	6
78	132887	32.04198655631	6
78	133308	32.141994192589	6
78	133738	32.241988829057	6
78	134171	32.341983465715	6
78	134598	32.441995102561	6
78	135452	32.641984376804	6
78	135879	32.741992014199	6
78	136306	32.841990527331	6
78	136739	32.941985165082	6
78	137173	33.041992803008	6
78	137606	33.141987441108	6
78	138024	33.241995079379	6
78	138451	33.341989717822	6
78	138884	33.441984356432	6
78	139317	33.54199199521	6
78	139738	33.641986634152	6
78	140159	33.741994273258	6
78	140592	33.841988912525	6
78	141022	33.941983551954	6
78	141883	34.141985831281	6
78	142316	34.241993471178	6
78	142743	34.341991918017	6
78	143176	34.441986558219	6
78	143603	34.541994198572	6
78	144030	34.641988839072	6
78	144463	34.741983479721	6
78	144896	34.841991120515	6
78	145317	34.941985761453	6
78	145751	35.041984276861	6
78	146169	35.141982918077	6
78	146590	35.24199055944	6
78	147432	35.441983842572	6
78	147859	35.541995484344	6
78	148292	35.64199012625	6
78	148707	35.741984768288	6
78	149137	35.841992410458	6
78	149570	35.941987052755	6
78	150010	36.041994695182	6
78	150440	36.141989337737	6
78	150867	36.241983980416	6
78	151300	36.34199162322	6
78	151730	36.441986266148	6
78	152160	36.541993909197	6
78	152590	36.641988552366	6
78	153023	36.741983195653	6
78	153456	36.841990839061	6
78	153877	36.941985482584	6
78	154317	37.041993126223	6
78	154750	37.141987769973	6
78	155177	37.241995413838	6
78	155607	37.341990057815	6
78	156037	37.441984701901	6
78	156470	37.541992346099	6
78	156897	37.641986990404	6
78	157324	37.741994634816	6
78	157757	37.841989279333	6
78	158178	37.941983923954	6
78	159027	38.141990020455	6
78	159454	38.241984665386	6
78	159884	38.341992310415	6
78	160317	38.441986955543	6
78	160741	38.54199460077	6
78	161168	38.641989246095	6
78	161592	38.741983891515	6
78	162019	38.84199153703	6
78	162452	38.941986182639	6
78	162886	39.041993828341	6
78	163310	39.141988474135	6
78	163737	39.241983120021	6
78	164170	39.341990765996	6
78	164603	39.441985412061	6
78	165036	39.541993058214	6
78	165457	39.641987704452	6
78	165890	39.741986220348	6
78	166320	39.841993866759	6
78	166747	39.941988513254	6
78	167187	40.041983159831	6
78	167620	40.14199080649	6
78	168053	40.241985453232	6
78	168486	40.341993100053	6
78	168913	40.441987746955	6
78	169340	40.541986393933	6
78	169764	40.641994040991	6
78	170188	40.741988688127	6
78	170615	40.841983335339	6
78	171042	40.941990982626	6
78	171894	41.141993277423	6
78	172327	41.241987924933	6
78	172754	41.341995572514	6
78	173187	41.441990220165	6
78	173608	41.541984867888	6
78	174041	41.641992515682	6
78	174471	41.741987163543	6
78	174889	41.841994811473	6
78	175316	41.941993459469	6
78	175729	42.041988107533	6
78	176156	42.141982755662	6
78	176586	42.241990403858	6
78	177007	42.341985052119	6
78	177864	42.54198734883	6
78	178291	42.641994997278	6
78	178712	42.741993517319	6
78	179139	42.841988165891	6
78	179560	42.941982814523	6
78	179994	43.041990463216	6
78	180424	43.141985111967	6
78	180854	43.241992760777	6
78	181284	43.341987409645	6
78	181717	43.441995058569	6
78	182150	43.54198970755	6
78	182574	43.641984356586	6
78	183001	43.741992005678	6
78	183428	43.841990654824	6
78	184295	44.04199295328	6
78	184713	44.141987602587	6
78	185143	44.241995251948	6
78	185558	44.341993772524	6
78	185976	44.441988421985	6
78	186409	44.541983071497	6
78	186839	44.64199072106	6
78	187260	44.74198537067	6
78	187693	44.84199302033	6
78	188120	44.941987670039	6
78	188554	45.041995319795	6
78	188978	45.141993774215	6
78	189405	45.241988424064	6
78	189832	45.34198307396	6
78	190265	45.441990723901	6
78	190692	45.541985373887	6
78	191125	45.641993023917	6
78	191552	45.741987673991	6
78	191985	45.841995324109	6
78	192415	45.941989974268	6
78	192849	46.041984624471	6
78	193276	46.141992274718	6
78	193703	46.241986925006	6
78	194136	46.341994575335	6
78	194566	46.441989225704	6
78	194996	46.541983876114	6
78	195426	46.641991526563	6
78	195856	46.741986177052	6
78	196289	46.841993827579	6
78	196710	46.941988478144	6
78	197150	47.041983128748	6
78	197577	47.14199077939	6
78	197998	47.241985430068	6
78	198428	47.341993080784	6
78	198861	47.441987731534	6
78	199285	47.541995382321	6
78	199712	47.641990033144	6
78	200145	47.741984684002	6
78	200572	47.841992334893	6
78	201005	47.941986985818	6
78	201445	48.041994636778	6
78	201878	48.141989287772	6
78	202302	48.2419839388	6
78	202717	48.341995589859	6
78	203550	48.541988696837	6
78	203977	48.641983347992	6
78	204410	48.741990999179	6
78	204837	48.841985650396	6
78	205267	48.941993301644	6
78	205707	49.041987952923	6
78	206134	49.14199560423	6
78	206567	49.241990255568	6
78	207000	49.341984906934	6
78	207433	49.441992558328	6
78	207860	49.541987209751	6
78	208690	49.741993382995	6
78	209123	49.841988034502	6
78	209550	49.941995686037	6
78	59298855	53.749568317452	6
78	65554917	54.144893230908	6
78	101979884	56.445689929197	6
78	125761701	57.948806698878	6
78	135158068	58.54414223333	6
78	138328066	58.743905846472	6
78	149365244	59.442144468512	6
78	151005539	59.545163495206	6
78	162086964	60.246206763499	6
78	171523399	60.842467296673	6
78	179427269	61.342640134559	6
78	182656481	61.546544208592	6
78	185757279	61.742538943029	6
78	200078892	62.64870612025	6
78	206312305	63.042101203561	6
78	209486714	63.242720922733	6
78	217432316	63.744617359204	6
78	218988124	63.84290801741	6
78	239647237	65.14884027447	6
78	252315361	65.949572263261	6
78	253895001	66.048947258144	6
78	287042675	68.145438264669	6
78	290179629	68.344116097776	6
78	294964537	68.647165354981	6
78	296510034	68.744490180702	6
78	298083605	68.843855320169	6
78	299685422	68.945228528049	6
78	301213607	69.042445383669	6
78	306039238	69.34765817385	6
112	4109	2	0
112	8383	3	0
112	12678	4	0
112	16958	5	0
112	21253	6	0
112	25548	7	0
112	29834	8	0
112	34129	9	0
112	38424	10	0
112	42728	11	0
112	47047	12	0
112	51339	13	0
112	55640	14	0
112	59887	15	0
112	64191	16	0
112	68465	17	0
112	72766	18	0
112	77064	19	0
112	81365	20	0
112	85651	21	0
112	89955	22	0
112	94220	23	0
112	98521	24	0
112	102804	25	0
112	107090	26	0
112	111376	27	0
112	115662	28	0
112	119972	29	0
112	124261	30	0
112	128490	31	0
112	132755	32	0
112	137044	33	0
112	141324	34	0
112	145619	35	0
112	149878	36	0
112	154185	37	0
112	158474	38	0
112	162754	39	0
112	167055	40	0
112	171344	41	0
112	175597	42	0
112	179862	43	0
112	184163	44	0
112	188422	45	0
112	192717	46	0
112	197018	47	0
112	201313	48	0
112	205575	49	0
112	209853	50	0
112	15798205	51	0
112	31634016	52	0
112	47438961	53	0
112	63274126	54	0
112	79102238	55	0
112	94925534	56	0
112	110752475	57	0
112	126568315	58	0
112	142381484	59	0
112	158201104	60	0
112	174023197	61	0
112	189820731	62	0
112	205645039	63	0
112	221478350	64	0
112	237312373	65	0
112	253111221	66	0
112	268934521	67	0
112	284735069	68	0
112	300542766	69	0
112	316354219	70	0
111	4109	2	0.031257
111	8383	3	0.03473
111	12678	4	0.033738
111	16958	5	0.033738
111	21253	6	0.034234
111	25548	7	0.034234
111	29834	8	0.03473
111	34129	9	0.034234
111	38424	10	0.033738
111	42728	11	0.03473
111	47047	12	0.034234
111	51339	13	0.034234
111	55640	14	0.03473
111	59887	15	0.033738
111	64191	16	0.03473
111	68465	17	0.034234
111	72766	18	0.034234
111	77064	19	0.034234
111	81365	20	0.03473
111	85651	21	0.03473
111	89955	22	0.03473
111	94220	23	0.034234
111	98521	24	0.03473
111	102804	25	0.033738
111	107090	26	0.034234
111	111376	27	0.033738
111	115662	28	0.034234
111	119972	29	0.034234
111	124261	30	0.034234
111	128490	31	0.034234
111	132755	32	0.033242
111	137044	33	0.032746
111	141324	34	0.034234
111	145619	35	0.034234
111	149878	36	0.034234
111	154185	37	0.03473
111	158474	38	0.03473
111	162754	39	0.033738
111	167055	40	0.03473
111	171344	41	0.033738
111	175597	42	0.033738
111	179862	43	0.034234
111	184163	44	0.03473
111	188422	45	0.034234
111	192717	46	0.034234
111	197018	47	0.033242
111	201313	48	0.03473
111	205575	49	0.033738
111	209853	50	0.033738
111	15798205	51	0.904473429539
111	31634016	52	0.915562898867
111	47438961	53	0.918430057801
111	63274126	54	0.913153748035
111	79102238	55	0.917513770233
111	94925534	56	0.916276429078
111	110752475	57	0.915686567849
111	126568315	58	0.915129978971
111	142381484	59	0.918722196941
111	158201104	60	0.913072082946
111	174023197	61	0.923377652658
111	189820731	62	0.919925004997
111	205645039	63	0.91665237962
111	221478350	64	0.916082506823
111	237312373	65	0.918420363879
111	253111221	66	0.916080791396
111	268934521	67	0.919916897756
111	284735069	68	0.91585873841
111	300542766	69	0.912858814162
111	316354219	70	0.917634032683
110	4109	2	6
110	8383	3	6
110	12678	4	6
110	16958	5	6
110	21253	6	6
110	25548	7	6
110	29834	8	6
110	34129	9	6
110	38424	10	6
110	42728	11	6
110	47047	12	6
110	51339	13	6
110	55640	14	6
110	59887	15	6
110	64191	16	6
110	68465	17	6
110	72766	18	6
110	77064	19	6
110	81365	20	6
110	85651	21	6
110	89955	22	6
110	94220	23	6
110	98521	24	6
110	102804	25	6
110	107090	26	6
110	111376	27	6
110	115662	28	6
110	119972	29	6
110	124261	30	6
110	128490	31	6
110	132755	32	6
110	137044	33	6
110	141324	34	6
110	145619	35	6
110	149878	36	6
110	154185	37	6
110	158474	38	6
110	162754	39	6
110	167055	40	6
110	171344	41	6
110	175597	42	6
110	179862	43	6
110	184163	44	6
110	188422	45	6
110	192717	46	6
110	197018	47	6
110	201313	48	6
110	205575	49	6
110	209853	50	6
110	15798205	51	6
110	31634016	52	6
110	47438961	53	6
110	63274126	54	6
110	79102238	55	6
110	94925534	56	6
110	110752475	57	6
110	126568315	58	6
110	142381484	59	6
110	158201104	60	6
110	174023197	61	6
110	189820731	62	6
110	205645039	63	6
110	221478350	64	6
110	237312373	65	6
110	253111221	66	6
110	268934521	67	6
110	284735069	68	6
110	300542766	69	6
110	316354219	70	6

