version 2
run NBCACC8mpsConf2-3-20210127-01:59:39-21719
attr configname NBCACC8mpsConf2
attr datetime 20210127-01:59:39
attr experiment NBCACC8mpsConf2
attr inifile CEBModule.ini
attr iterationvars "$nCars=7, $platoonSize=7, $nLanes=1, $humanCars=400, $humanLanes=3, $caccSpacing=3.0, $ploegH=0.5, $leaderHeadway=1.2, $leaderSpeed=100, $beaconInterval=0.1, $priority=4, $packetSize=200"
attr iterationvarsf nCars=7,platoonSize=7,nLanes=1,humanCars=400,humanLanes=3,caccSpacing=3.0,ploegH=0.5,leaderHeadway=1.2,leaderSpeed=100,beaconInterval=0.1,priority=4,packetSize=200-
attr measurement "$nCars=7, $platoonSize=7, $nLanes=1, $humanCars=400, $humanLanes=3, $caccSpacing=3.0, $ploegH=0.5, $leaderHeadway=1.2, $leaderSpeed=100, $beaconInterval=0.1, $priority=4, $packetSize=200"
attr network Highway
attr processid 21719
attr repetition 3
attr replication #3
attr resultdir results
attr runnumber 3
attr seedset 3
itervar beaconInterval 0.1
itervar caccSpacing 3.0
itervar humanCars 400
itervar humanLanes 3
itervar leaderHeadway 1.2
itervar leaderSpeed 100
itervar nCars 7
itervar nLanes 1
itervar packetSize 200
itervar platoonSize 7
itervar ploegH 0.5
itervar priority 4
param *.manager.useGui false
param *.node[*].scenario_type "\"BrakingScenario\""
param *.node[*].prot.isRelayEnabled true
param *.node[*].runtimeManager.rmEnabled false
param *.node[*].prot.isCoopEmBrkEnabled true
param *.node[*].prot.isNBEnabled true
param *.node[*].prot.decelarationRate "8 mpsps"
param *.node[*].prot.brakeAtTime 60s
param *.node[*].prot.speedOfLeader 100kmph
param *.node[*].prot.DENMInterval 0.1s
param *.node[*].scenario.leaderOscillationFrequency "0.2 Hz"
param *.playgroundSizeX 65000m
param *.playgroundSizeY 25000m
param *.playgroundSizeZ 50m
param **.debug false
param **.coreDebug false
param *.annotations.draw false
param *.obstacles.debug false
param *.world.useTorus false
param *.world.use2D false
param *.manager.updateInterval 0.01s
param *.manager.host "\"localhost\""
param *.manager.moduleType "\"vtypeauto=org.car2x.veins.modules.application.platooning.PlatoonCar vtypehuman=HumanCar\""
param *.manager.moduleName "\"vtypeauto=node vtypehuman=human\""
param *.manager.moduleDisplayString "\"\""
param *.manager.autoShutdown true
param *.manager.margin 25
param *.connectionManager.sendDirect true
param *.connectionManager.maxInterfDist 2600m
param *.connectionManager.drawMaxIntfDist false
param *.**.nic.mac1609_4.useServiceChannel false
param *.**.nic.mac1609_4.txPower 100mW
param *.**.nic.mac1609_4.bitrate 6Mbps
param *.**.nic.phy80211p.sensitivity -94dBm
param *.**.nic.phy80211p.maxTXPower 100mW
param *.**.nic.phy80211p.useThermalNoise true
param *.**.nic.phy80211p.thermalNoise -95dBm
param *.**.nic.phy80211p.decider "xmldoc(\"config.xml\")"
param *.**.nic.phy80211p.analogueModels "xmldoc(\"config.xml\")"
param *.**.nic.phy80211p.usePropagationDelay true
param *.node[*].mobility.x 0
param *.node[*].mobility.y 0
param *.node[*].mobility.z 1.895
param *.human[*].mobility.x 0
param *.human[*].mobility.y 0
param *.human[*].mobility.z 1.895
param **.seed 3
param *.manager.configFile "\"./sumocfg/freeway.sumo.cfg\""
param *.node[*].scenario.vehicleFile "\"./sumocfg/vehicles.xml\""
param **.numberOfCars 7
param **.numberOfCarsPerPlatoon 7
param **.numberOfLanes 1
param **.numberOfHumanCars 400
param **.numberOfHumanLanes 3
param *.node[*].helper_type "\"PositionHelper\""
param *.node[*].helper.nLanes 1
param *.node[*].helper.platoonSize 7
param *.node[*].helper.nCars 7
param *.node[*].scenario.caccSpacing 3.0m
param *.node[*].scenario.caccC1 0.5
param *.node[*].scenario.caccXi 1
param *.node[*].scenario.caccOmegaN "0.2 Hz"
param *.node[*].scenario.engineTau "0.5 s"
param *.node[*].scenario.ploegH 0.5s
param *.node[*].scenario.ploegKp 0.2
param *.node[*].scenario.ploegKd 0.7
param *.node[*].scenario.useRealisticEngine false
param **.numericController 1
param *.node[*].scenario.controller "\"CACC\""
param **.headway 0.5s
param *.node[*].scenario.accHeadway 0.5s
param *.node[*].scenario.leaderHeadway 1.2s
param *.node[*].scenario.leaderSpeed 100kmph
param *.node[*].appl_type "\"SimplePlatooningApp\""
param *.node[*].protocol_type "\"SimplePlatooningBeaconing\""
param *.node[*].prot.beaconingInterval 0.1s
param *.node[*].prot.priority 4
param *.node[*].prot.packetSize 200
param *.node[*].prot.ackPacketSize 50
param *.node[*].prot.useControllerAcceleration true
param *.node[*].unicast.packetLossRate 0.0
param *.human[*].prot.beaconingInterval ".02 s"
param *.human[*].prot.priority 4
param *.human[*].prot.packetSize 200
param *.human[*].prot.txPower "100 mW"
param *.human[*].prot.bitrate "3 Mbps"
param **.traffic_type "\"PlatoonsPlusHumanTraffic\""
param **.traffic.platoonInsertTime "1 s"
param **.traffic.humanInsertTime "50 s"
param **.traffic.platoonInsertSpeed 100kmph
param **.traffic.nCars 7
param **.traffic.humanCars 400
param **.traffic.platoonSize 7
param **.traffic.nLanes 1
param **.traffic.humanLanes 3
param **.traffic.platooningVType "\"vtypeauto\""
param **.traffic.humanVType "\"vtypehuman\""
param **.traffic.platoonInsertDistance 3.0m
param **.traffic.platoonInsertHeadway 0s
param **.traffic.platoonLeaderHeadway 1.2s

vector 0 Highway.node[0].appl distance ETV
vector 1 Highway.node[0].appl relativeSpeed ETV
vector 2 Highway.node[0].appl nodeId ETV
vector 3 Highway.node[0].appl acceleration ETV
vector 4 Highway.node[0].appl controllerAcceleration ETV
vector 5 Highway.node[0].appl speed ETV
vector 6 Highway.node[0].appl posx ETV
vector 7 Highway.node[0].appl posy ETV
vector 8 Highway.node[1].appl distance ETV
vector 9 Highway.node[1].appl relativeSpeed ETV
vector 10 Highway.node[1].appl nodeId ETV
vector 11 Highway.node[1].appl acceleration ETV
vector 12 Highway.node[1].appl controllerAcceleration ETV
vector 13 Highway.node[1].appl speed ETV
vector 14 Highway.node[1].appl posx ETV
vector 15 Highway.node[1].appl posy ETV
vector 16 Highway.node[2].appl distance ETV
vector 17 Highway.node[2].appl relativeSpeed ETV
vector 18 Highway.node[2].appl nodeId ETV
vector 19 Highway.node[2].appl acceleration ETV
vector 20 Highway.node[2].appl controllerAcceleration ETV
vector 21 Highway.node[2].appl speed ETV
vector 22 Highway.node[2].appl posx ETV
vector 23 Highway.node[2].appl posy ETV
vector 24 Highway.node[3].appl distance ETV
vector 25 Highway.node[3].appl relativeSpeed ETV
vector 26 Highway.node[3].appl nodeId ETV
vector 27 Highway.node[3].appl acceleration ETV
vector 28 Highway.node[3].appl controllerAcceleration ETV
vector 29 Highway.node[3].appl speed ETV
vector 30 Highway.node[3].appl posx ETV
vector 31 Highway.node[3].appl posy ETV
vector 32 Highway.node[4].appl distance ETV
vector 33 Highway.node[4].appl relativeSpeed ETV
vector 34 Highway.node[4].appl nodeId ETV
vector 35 Highway.node[4].appl acceleration ETV
vector 36 Highway.node[4].appl controllerAcceleration ETV
vector 37 Highway.node[4].appl speed ETV
vector 38 Highway.node[4].appl posx ETV
vector 39 Highway.node[4].appl posy ETV
vector 40 Highway.node[5].appl distance ETV
vector 41 Highway.node[5].appl relativeSpeed ETV
vector 42 Highway.node[5].appl nodeId ETV
vector 43 Highway.node[5].appl acceleration ETV
vector 44 Highway.node[5].appl controllerAcceleration ETV
vector 45 Highway.node[5].appl speed ETV
vector 46 Highway.node[5].appl posx ETV
vector 47 Highway.node[5].appl posy ETV
vector 48 Highway.node[6].appl distance ETV
vector 49 Highway.node[6].appl relativeSpeed ETV
vector 50 Highway.node[6].appl nodeId ETV
vector 51 Highway.node[6].appl acceleration ETV
vector 52 Highway.node[6].appl controllerAcceleration ETV
vector 53 Highway.node[6].appl speed ETV
vector 54 Highway.node[6].appl posx ETV
vector 55 Highway.node[6].appl posy ETV
vector 56 Highway.node[1].prot leaderDelay ETV
vector 57 Highway.node[1].prot leaderDelayId ETV
vector 58 Highway.node[1].prot leaderTransmissionN ETV
vector 59 Highway.node[1].prot frontDelay ETV
vector 60 Highway.node[1].prot frontDelayId ETV
vector 61 Highway.node[1].prot frontTransmissionN ETV
vector 62 Highway.node[2].prot leaderDelay ETV
vector 63 Highway.node[2].prot leaderDelayId ETV
vector 64 Highway.node[2].prot leaderTransmissionN ETV
vector 65 Highway.node[3].prot leaderDelay ETV
vector 66 Highway.node[3].prot leaderDelayId ETV
vector 67 Highway.node[3].prot leaderTransmissionN ETV
vector 68 Highway.node[4].prot leaderDelay ETV
vector 69 Highway.node[4].prot leaderDelayId ETV
vector 70 Highway.node[4].prot leaderTransmissionN ETV
vector 71 Highway.node[5].prot leaderDelay ETV
vector 72 Highway.node[5].prot leaderDelayId ETV
vector 73 Highway.node[5].prot leaderTransmissionN ETV
vector 74 Highway.node[6].prot leaderDelay ETV
vector 75 Highway.node[6].prot leaderDelayId ETV
vector 76 Highway.node[6].prot leaderTransmissionN ETV
vector 77 Highway.node[2].prot frontDelay ETV
vector 78 Highway.node[2].prot frontDelayId ETV
vector 79 Highway.node[2].prot frontTransmissionN ETV
vector 80 Highway.node[5].prot frontDelay ETV
vector 81 Highway.node[5].prot frontDelayId ETV
vector 82 Highway.node[5].prot frontTransmissionN ETV
vector 83 Highway.node[3].prot frontDelay ETV
vector 84 Highway.node[3].prot frontDelayId ETV
vector 85 Highway.node[3].prot frontTransmissionN ETV
vector 86 Highway.node[6].prot frontDelay ETV
vector 87 Highway.node[6].prot frontDelayId ETV
vector 88 Highway.node[6].prot frontTransmissionN ETV
vector 89 Highway.node[4].prot frontDelay ETV
vector 90 Highway.node[4].prot frontDelayId ETV
vector 91 Highway.node[4].prot frontTransmissionN ETV
vector 92 Highway.node[0].prot nodeId ETV
vector 93 Highway.node[0].prot busyTime ETV
vector 94 Highway.node[0].prot collisions ETV
vector 95 Highway.node[1].prot nodeId ETV
vector 96 Highway.node[1].prot busyTime ETV
vector 97 Highway.node[1].prot collisions ETV
vector 98 Highway.node[2].prot nodeId ETV
vector 99 Highway.node[2].prot busyTime ETV
vector 100 Highway.node[2].prot collisions ETV
vector 101 Highway.node[3].prot nodeId ETV
vector 102 Highway.node[3].prot busyTime ETV
vector 103 Highway.node[3].prot collisions ETV
vector 104 Highway.node[4].prot nodeId ETV
vector 105 Highway.node[4].prot busyTime ETV
vector 106 Highway.node[4].prot collisions ETV
vector 107 Highway.node[5].prot nodeId ETV
vector 108 Highway.node[5].prot busyTime ETV
vector 109 Highway.node[5].prot collisions ETV
vector 110 Highway.node[6].prot nodeId ETV
vector 111 Highway.node[6].prot busyTime ETV
vector 112 Highway.node[6].prot collisions ETV
vector 113 Highway.node[1].prot firstDENMDelay ETV
vector 114 Highway.node[1].prot noOfRetransmissions ETV
vector 115 Highway.node[2].prot firstDENMDelay ETV
vector 116 Highway.node[2].prot noOfRetransmissions ETV
vector 117 Highway.node[5].prot firstDENMDelay ETV
vector 118 Highway.node[5].prot noOfRetransmissions ETV
vector 119 Highway.node[3].prot firstDENMDelay ETV
vector 120 Highway.node[3].prot noOfRetransmissions ETV
vector 121 Highway.node[4].prot firstDENMDelay ETV
vector 122 Highway.node[4].prot noOfRetransmissions ETV
vector 123 Highway.node[6].prot firstDENMDelay ETV
vector 124 Highway.node[6].prot noOfRetransmissions ETV
vector 125 Highway.node[0].prot firstDENMDelay ETV
vector 126 Highway.node[0].prot noOfRetransmissions ETV
4	232	1.11	-0.00218518
4	645	1.21	-0.00213419
4	1067	1.31	-0.00205408
4	1494	1.41	-0.00195152
4	1929	1.51	-0.00183238
4	2356	1.61	-0.00170178
4	2789	1.71	-0.00156412
4	3218	1.81	-0.00142314
4	3645	1.91	-0.00128196
4	4079	2.01	-0.00114315
4	4506	2.11	-0.00100877
4	4933	2.21	-0.000880447
4	5351	2.31	-0.000759381
4	5784	2.41	-0.000646445
4	6217	2.51	-0.000542204
4	6644	2.61	-0.000446965
4	7065	2.71	-0.000360819
4	7492	2.81	-0.000283678
4	7922	2.91	-0.000215307
4	8362	3.01	-0.000155357
4	8795	3.11	-0.000103391
4	9210	3.21	-5.89069e-05
4	9643	3.31	-2.13575e-05
4	10073	3.41	9.82919e-06
4	10503	3.51	3.52368e-05
4	10936	3.61	5.54479e-05
4	11351	3.71	7.10335e-05
4	11784	3.81	8.25451e-05
4	12217	3.91	9.05081e-05
4	12648	4.01	9.54172e-05
4	13081	4.11	9.7733e-05
4	13508	4.21	9.78798e-05
4	13941	4.31	9.62447e-05
4	14374	4.41	9.31771e-05
4	14801	4.51	8.89894e-05
4	15228	4.61	8.39579e-05
4	15661	4.71	7.83245e-05
4	16088	4.81	7.22983e-05
4	16515	4.91	6.6058e-05
4	16949	5.01	5.9754e-05
4	17379	5.11	5.35107e-05
4	17809	5.21	4.74294e-05
4	18242	5.31	4.15898e-05
4	18672	5.41	3.60534e-05
4	19102	5.51	3.0865e-05
4	19535	5.61	2.60551e-05
4	19968	5.71	2.16419e-05
4	20389	5.81	1.76335e-05
4	20822	5.91	1.40289e-05
4	21262	6.01	1.08202e-05
4	21689	6.11	7.99392e-06
4	22116	6.21	5.532e-06
4	22537	6.31	3.41315e-06
4	22958	6.41	1.61374e-06
4	23391	6.51	1.08654e-07
4	23824	6.61	-1.12799e-06
4	24257	6.71	-2.12224e-06
4	24690	6.81	-2.89981e-06
4	25123	6.91	-3.48567e-06
4	25548	7.01	-3.90376e-06
4	25972	7.11	-4.17673e-06
4	26399	7.21	-4.32574e-06
4	26832	7.31	-4.3704e-06
4	27265	7.41	-4.32865e-06
4	27692	7.51	-4.21676e-06
4	28125	7.61	-4.04934e-06
4	28558	7.71	-3.83937e-06
4	28988	7.81	-3.59826e-06
4	29421	7.91	-3.33592e-06
4	29855	8.01	-3.06089e-06
4	30279	8.11	-2.78036e-06
4	30709	8.21	-2.50036e-06
4	31136	8.31	-2.22582e-06
4	31569	8.41	-1.96068e-06
4	31999	8.51	-1.708e-06
4	32432	8.61	-1.47009e-06
4	32853	8.71	-1.24855e-06
4	33244	8.81	-1.04441e-06
4	33677	8.91	-8.58219e-07
4	34111	9.01	-6.90082e-07
4	34535	9.11	-5.39774e-07
4	34968	9.21	-4.06787e-07
4	35398	9.31	-2.90396e-07
4	35831	9.41	-1.89707e-07
4	36264	9.51	-1.03704e-07
4	36697	9.61	-3.12909e-08
4	37130	9.71	2.86736e-08
4	37557	9.81	7.73515e-08
4	37987	9.91	1.15897e-07
4	38421	10.01	1.45439e-07
4	38851	10.11	1.67065e-07
4	39284	10.21	1.81809e-07
4	39717	10.31	1.90644e-07
4	40147	10.41	1.94472e-07
4	40580	10.51	1.94125e-07
4	41013	10.61	1.90358e-07
4	41428	10.71	1.83853e-07
4	41861	10.81	1.75219e-07
4	42288	10.91	1.64994e-07
4	42728	11.01	1.53647e-07
4	43155	11.11	1.41582e-07
4	43585	11.21	1.29146e-07
4	44015	11.31	1.16627e-07
4	44445	11.41	1.04266e-07
4	44875	11.51	9.22547e-08
4	45308	11.61	8.07471e-08
4	45735	11.71	6.98584e-08
4	46168	11.81	5.96732e-08
4	46592	11.91	5.02471e-08
4	47032	12.01	4.16133e-08
4	47465	12.11	3.37845e-08
4	47889	12.21	2.67558e-08
4	48322	12.31	2.05102e-08
4	48755	12.41	1.50187e-08
4	49182	12.51	1.02442e-08
4	49615	12.61	6.14406e-09
4	50048	12.71	2.67022e-09
4	50436	12.81	-2.27374e-10
4	50869	12.91	-2.60059e-09
4	51303	13.01	-4.50058e-09
4	51730	13.11	-5.97851e-09
4	52163	13.21	-7.08376e-09
4	52596	13.31	-7.86322e-09
4	53029	13.41	-8.36167e-09
4	53414	13.51	-8.62066e-09
4	53826	13.61	-8.67857e-09
4	54259	13.71	-8.57057e-09
4	54683	13.81	-8.32792e-09
4	55113	13.91	-7.97975e-09
4	55553	14.01	-7.55058e-09
4	55980	14.11	-7.06351e-09
4	56410	14.21	-6.53699e-09
4	56828	14.31	-5.98774e-09
4	57261	14.41	-5.42997e-09
4	57694	14.51	-4.87468e-09
4	58118	14.61	-4.33182e-09
4	58551	14.71	-3.80886e-09
4	58978	14.81	-3.31148e-09
4	59372	14.91	-2.84395e-09
4	59812	15.01	-2.40981e-09
4	60239	15.11	-2.01013e-09
4	60654	15.21	-1.64633e-09
4	61087	15.31	-1.31806e-09
4	61517	15.41	-1.02531e-09
4	61950	15.51	-7.66676e-10
4	62377	15.61	-5.40723e-10
4	62798	15.71	-3.46034e-10
4	63225	15.81	-1.79767e-10
4	63646	15.91	-4.01457e-11
4	64080	16.01	7.49623e-11
4	64501	16.11	1.68043e-10
4	64928	16.21	2.41585e-10
4	65361	16.31	2.97362e-10
4	65788	16.41	3.37863e-10
4	66212	16.51	3.64864e-10
4	66642	16.61	3.80851e-10
4	67063	16.71	3.86891e-10
4	67490	16.81	3.84759e-10
4	67923	16.91	3.76232e-10
4	68357	17.01	3.62377e-10
4	68784	17.11	3.44613e-10
4	69211	17.21	3.24007e-10
4	69644	17.31	3.00915e-10
4	70074	17.41	2.76756e-10
4	70498	17.51	2.52243e-10
4	70913	17.61	2.27374e-10
4	71346	17.71	2.0286e-10
4	71773	17.81	1.79057e-10
4	72203	17.91	1.56319e-10
4	72622	18.01	1.35003e-10
4	73049	18.11	1.15108e-10
4	73476	18.21	9.66338e-11
4	73906	18.31	7.99361e-11
4	74333	18.41	6.46594e-11
4	74766	18.51	5.08038e-11
4	75187	18.61	3.83693e-11
4	75614	18.71	2.73559e-11
4	76041	18.81	1.77636e-11
4	76474	18.91	9.59233e-12
4	76896	19.01	2.84217e-12
4	77329	19.11	-2.84217e-12
4	77762	19.21	-7.4607e-12
4	78192	19.31	-1.13687e-11
4	78619	19.41	-1.42109e-11
4	79043	19.51	-1.63425e-11
4	79473	19.61	-1.77636e-11
4	79906	19.71	-1.84741e-11
4	80333	19.81	-1.88294e-11
4	80763	19.91	-1.88294e-11
4	81200	20.01	-1.88294e-11
4	81630	20.11	-1.81188e-11
4	82060	20.21	-1.7053e-11
4	82487	20.31	-1.63425e-11
4	82920	20.41	-1.52767e-11
4	83353	20.51	-1.45661e-11
4	83777	20.61	-1.35003e-11
4	84207	20.71	-1.27898e-11
4	84640	20.81	-1.1724e-11
4	85073	20.91	-1.10134e-11
4	85510	21.01	-9.9476e-12
4	85922	21.11	-9.23706e-12
4	86352	21.21	-8.17124e-12
4	86785	21.31	-7.4607e-12
4	87203	21.41	-6.39488e-12
4	87615	21.51	-5.68434e-12
4	88045	21.61	-4.61853e-12
4	88472	21.71	-3.90799e-12
4	88905	21.81	-2.84217e-12
4	89332	21.91	-2.13163e-12
4	89766	22.01	-1.06581e-12
4	90187	22.11	-3.55271e-13
4	90614	22.21	7.10543e-13
4	91047	22.31	1.42109e-12
4	91474	22.41	2.13163e-12
4	91868	22.51	2.84217e-12
4	92283	22.61	3.19744e-12
4	92716	22.71	3.90799e-12
4	93146	22.81	4.26326e-12
4	93573	22.91	4.61853e-12
4	94010	23.01	5.32907e-12
4	94434	23.11	5.68434e-12
4	94867	23.21	5.68434e-12
4	95294	23.31	6.03961e-12
4	95685	23.41	6.39488e-12
4	96103	23.51	6.75016e-12
4	96530	23.61	6.75016e-12
4	96918	23.71	7.10543e-12
4	97351	23.81	7.10543e-12
4	97784	23.91	7.4607e-12
4	98185	24.01	7.4607e-12
4	98618	24.11	7.81597e-12
4	99039	24.21	7.81597e-12
4	99466	24.31	7.81597e-12
4	99899	24.41	7.81597e-12
4	100326	24.51	8.17124e-12
4	100759	24.61	8.17124e-12
4	101186	24.71	8.17124e-12
4	101616	24.81	8.17124e-12
4	102031	24.91	8.17124e-12
4	102471	25.01	8.52651e-12
4	102886	25.11	8.52651e-12
4	103319	25.21	8.52651e-12
4	103743	25.31	8.52651e-12
4	104170	25.41	8.52651e-12
4	104597	25.51	8.52651e-12
4	105024	25.61	8.52651e-12
4	105457	25.71	8.52651e-12
4	105890	25.81	8.52651e-12
4	106320	25.91	8.52651e-12
4	106760	26.01	8.88178e-12
4	107187	26.11	8.88178e-12
4	107620	26.21	8.88178e-12
4	108053	26.31	8.88178e-12
4	108471	26.41	8.88178e-12
4	108892	26.51	8.88178e-12
4	109325	26.61	8.88178e-12
4	109758	26.71	8.88178e-12
4	110191	26.81	8.88178e-12
4	110621	26.91	8.88178e-12
4	111061	27.01	8.88178e-12
4	111491	27.11	8.88178e-12
4	111918	27.21	8.88178e-12
4	112351	27.31	8.88178e-12
4	112772	27.41	8.88178e-12
4	113199	27.51	8.88178e-12
4	113632	27.61	8.88178e-12
4	114050	27.71	8.88178e-12
4	114477	27.81	8.88178e-12
4	114904	27.91	8.88178e-12
4	115344	28.01	8.88178e-12
4	115777	28.11	8.88178e-12
4	116207	28.21	8.88178e-12
4	116640	28.31	8.88178e-12
4	117073	28.41	8.88178e-12
4	117500	28.51	8.88178e-12
4	117930	28.61	8.88178e-12
4	118363	28.71	8.88178e-12
4	118790	28.81	8.88178e-12
4	119217	28.91	8.88178e-12
4	119645	29.01	8.88178e-12
4	120078	29.11	8.88178e-12
4	120505	29.21	8.88178e-12
4	120923	29.31	8.88178e-12
4	121356	29.41	8.88178e-12
4	121780	29.51	8.88178e-12
4	122207	29.61	8.88178e-12
4	122637	29.71	8.88178e-12
4	123067	29.81	8.88178e-12
4	123500	29.91	8.88178e-12
4	123937	30.01	8.88178e-12
4	124367	30.11	8.88178e-12
4	124794	30.21	8.88178e-12
4	125221	30.31	8.88178e-12
4	125639	30.41	8.88178e-12
4	126072	30.51	8.88178e-12
4	126505	30.61	8.88178e-12
4	126938	30.71	8.88178e-12
4	127368	30.81	8.88178e-12
4	127795	30.91	8.88178e-12
4	128235	31.01	8.88178e-12
4	128656	31.11	8.88178e-12
4	129089	31.21	8.88178e-12
4	129522	31.31	8.88178e-12
4	129952	31.41	8.88178e-12
4	130376	31.51	8.88178e-12
4	130803	31.61	8.88178e-12
4	131233	31.71	8.88178e-12
4	131645	31.81	8.88178e-12
4	132060	31.91	8.88178e-12
4	132500	32.01	8.88178e-12
4	132930	32.11	8.88178e-12
4	133315	32.21	8.88178e-12
4	133742	32.31	8.88178e-12
4	134172	32.41	8.88178e-12
4	134605	32.51	8.88178e-12
4	135038	32.61	8.88178e-12
4	135471	32.71	8.88178e-12
4	135892	32.81	8.88178e-12
4	136322	32.91	8.88178e-12
4	136762	33.01	8.88178e-12
4	137195	33.11	8.88178e-12
4	137622	33.21	8.88178e-12
4	138016	33.31	8.88178e-12
4	138449	33.41	8.88178e-12
4	138882	33.51	8.88178e-12
4	139309	33.61	8.88178e-12
4	139742	33.71	8.88178e-12
4	140169	33.81	8.88178e-12
4	140596	33.91	8.88178e-12
4	141018	34.01	8.88178e-12
4	141442	34.11	8.88178e-12
4	141872	34.21	8.88178e-12
4	142305	34.31	8.88178e-12
4	142738	34.41	8.88178e-12
4	143165	34.51	8.88178e-12
4	143583	34.61	8.88178e-12
4	144016	34.71	8.88178e-12
4	144446	34.81	8.88178e-12
4	144876	34.91	8.88178e-12
4	145316	35.01	8.88178e-12
4	145743	35.11	8.88178e-12
4	146164	35.21	8.88178e-12
4	146585	35.31	8.88178e-12
4	147018	35.41	8.88178e-12
4	147403	35.51	8.88178e-12
4	147827	35.61	8.88178e-12
4	148254	35.71	8.88178e-12
4	148687	35.81	8.88178e-12
4	149114	35.91	8.88178e-12
4	149554	36.01	8.88178e-12
4	149984	36.11	8.88178e-12
4	150408	36.21	8.88178e-12
4	150841	36.31	8.88178e-12
4	151271	36.41	8.88178e-12
4	151701	36.51	8.88178e-12
4	152134	36.61	8.88178e-12
4	152561	36.71	8.88178e-12
4	152985	36.81	8.88178e-12
4	153403	36.91	8.88178e-12
4	153837	37.01	8.88178e-12
4	154258	37.11	8.88178e-12
4	154688	37.21	8.88178e-12
4	155109	37.31	8.88178e-12
4	155539	37.41	8.88178e-12
4	155963	37.51	8.88178e-12
4	156393	37.61	8.88178e-12
4	156826	37.71	8.88178e-12
4	157253	37.81	8.88178e-12
4	157668	37.91	8.88178e-12
4	158102	38.01	8.88178e-12
4	158535	38.11	8.88178e-12
4	158962	38.21	8.88178e-12
4	159395	38.31	8.88178e-12
4	159828	38.41	8.88178e-12
4	160246	38.51	8.88178e-12
4	160679	38.61	8.88178e-12
4	161112	38.71	8.88178e-12
4	161536	38.81	8.88178e-12
4	161960	38.91	8.88178e-12
4	162394	39.01	8.88178e-12
4	162821	39.11	8.88178e-12
4	163254	39.21	8.88178e-12
4	163681	39.31	8.88178e-12
4	164114	39.41	8.88178e-12
4	164547	39.51	8.88178e-12
4	164974	39.61	8.88178e-12
4	165404	39.71	8.88178e-12
4	165831	39.81	8.88178e-12
4	166264	39.91	8.88178e-12
4	166698	40.01	8.88178e-12
4	167131	40.11	8.88178e-12
4	167555	40.21	8.88178e-12
4	167982	40.31	8.88178e-12
4	168406	40.41	8.88178e-12
4	168833	40.51	8.88178e-12
4	169266	40.61	8.88178e-12
4	169693	40.71	8.88178e-12
4	170078	40.81	8.88178e-12
4	170508	40.91	8.88178e-12
4	170942	41.01	8.88178e-12
4	171354	41.11	8.88178e-12
4	171781	41.21	8.88178e-12
4	172211	41.31	8.88178e-12
4	172635	41.41	8.88178e-12
4	173062	41.51	8.88178e-12
4	173492	41.61	8.88178e-12
4	173919	41.71	8.88178e-12
4	174352	41.81	8.88178e-12
4	174785	41.91	8.88178e-12
4	175219	42.01	8.88178e-12
4	175643	42.11	8.88178e-12
4	176064	42.21	8.88178e-12
4	176497	42.31	8.88178e-12
4	176927	42.41	8.88178e-12
4	177360	42.51	8.88178e-12
4	177763	42.61	8.88178e-12
4	178190	42.71	8.88178e-12
4	178623	42.81	8.88178e-12
4	179056	42.91	8.88178e-12
4	179490	43.01	8.88178e-12
4	179923	43.11	8.88178e-12
4	180335	43.21	8.88178e-12
4	180768	43.31	8.88178e-12
4	181195	43.41	8.88178e-12
4	181619	43.51	8.88178e-12
4	182049	43.61	8.88178e-12
4	182482	43.71	8.88178e-12
4	182912	43.81	8.88178e-12
4	183342	43.91	8.88178e-12
4	183782	44.01	8.88178e-12
4	184215	44.11	8.88178e-12
4	184636	44.21	8.88178e-12
4	185069	44.31	8.88178e-12
4	185502	44.41	8.88178e-12
4	185923	44.51	8.88178e-12
4	186350	44.61	8.88178e-12
4	186783	44.71	8.88178e-12
4	187210	44.81	8.88178e-12
4	187622	44.91	8.88178e-12
4	188059	45.01	8.88178e-12
4	188489	45.11	8.88178e-12
4	188919	45.21	8.88178e-12
4	189343	45.31	8.88178e-12
4	189734	45.41	8.88178e-12
4	190122	45.51	8.88178e-12
4	190546	45.61	8.88178e-12
4	190976	45.71	8.88178e-12
4	191403	45.81	8.88178e-12
4	191827	45.91	8.88178e-12
4	192267	46.01	8.88178e-12
4	192700	46.11	8.88178e-12
4	193127	46.21	8.88178e-12
4	193548	46.31	8.88178e-12
4	193975	46.41	8.88178e-12
4	194408	46.51	8.88178e-12
4	194841	46.61	8.88178e-12
4	195274	46.71	8.88178e-12
4	195698	46.81	8.88178e-12
4	196125	46.91	8.88178e-12
4	196523	47.01	8.88178e-12
4	196950	47.11	8.88178e-12
4	197380	47.21	8.88178e-12
4	197813	47.31	8.88178e-12
4	198246	47.41	8.88178e-12
4	198670	47.51	8.88178e-12
4	199100	47.61	8.88178e-12
4	199524	47.71	8.88178e-12
4	199957	47.81	8.88178e-12
4	200384	47.91	8.88178e-12
4	200815	48.01	8.88178e-12
4	201206	48.11	8.88178e-12
4	201639	48.21	8.88178e-12
4	202066	48.31	8.88178e-12
4	202499	48.41	8.88178e-12
4	202923	48.51	8.88178e-12
4	203353	48.61	8.88178e-12
4	203741	48.71	8.88178e-12
4	204168	48.81	8.88178e-12
4	204586	48.91	8.88178e-12
4	205026	49.01	8.88178e-12
4	205453	49.11	8.88178e-12
4	205886	49.21	8.88178e-12
4	206319	49.31	8.88178e-12
4	206752	49.41	8.88178e-12
4	207179	49.51	8.88178e-12
4	207612	49.61	8.88178e-12
4	208045	49.71	8.88178e-12
4	208472	49.81	8.88178e-12
4	208899	49.91	8.88178e-12
4	209331	50.01	8.88178e-12
4	1708616	50.11	8.88178e-12
4	3294397	50.21	8.88178e-12
4	4868593	50.31	8.88178e-12
4	6464194	50.41	8.88178e-12
4	8037175	50.51	8.88178e-12
4	9609960	50.61	8.88178e-12
4	11209489	50.71	8.88178e-12
4	12796174	50.81	8.88178e-12
4	14367476	50.91	8.88178e-12
4	15950334	51.01	8.88178e-12
4	17526660	51.11	8.88178e-12
4	19109133	51.21	8.88178e-12
4	20687632	51.31	8.88178e-12
4	22262992	51.41	8.88178e-12
4	23853416	51.51	8.88178e-12
4	25421974	51.61	8.88178e-12
4	27008205	51.71	8.88178e-12
4	28593815	51.81	8.88178e-12
4	30185927	51.91	8.88178e-12
4	31747822	52.01	8.88178e-12
4	33342705	52.11	8.88178e-12
4	34916500	52.21	8.88178e-12
4	36509655	52.31	8.88178e-12
4	38071991	52.41	8.88178e-12
4	39654064	52.51	8.88178e-12
4	41242034	52.61	8.88178e-12
4	42816653	52.71	8.88178e-12
4	44404235	52.81	8.88178e-12
4	45998561	52.91	8.88178e-12
4	47581154	53.01	8.88178e-12
4	49156672	53.11	8.88178e-12
4	50743255	53.21	8.88178e-12
4	52323941	53.31	8.88178e-12
4	53908663	53.41	8.88178e-12
4	55490724	53.51	8.88178e-12
4	57062583	53.61	8.88178e-12
4	58656544	53.71	8.88178e-12
4	60227988	53.81	8.88178e-12
4	61806174	53.91	8.88178e-12
4	63388629	54.01	8.88178e-12
4	64976577	54.11	8.88178e-12
4	66549158	54.21	8.88178e-12
4	68136542	54.31	8.88178e-12
4	69708486	54.41	8.88178e-12
4	71295266	54.51	8.88178e-12
4	72886574	54.61	8.88178e-12
4	74449922	54.71	8.88178e-12
4	76039471	54.81	8.88178e-12
4	77635833	54.91	8.88178e-12
4	79220706	55.01	8.88178e-12
4	80797648	55.11	8.88178e-12
4	82383709	55.21	8.88178e-12
4	83955331	55.31	8.88178e-12
4	85542687	55.41	8.88178e-12
4	87115577	55.51	8.88178e-12
4	88695832	55.61	8.88178e-12
4	90278226	55.71	8.88178e-12
4	91849959	55.81	8.88178e-12
4	93439143	55.91	8.88178e-12
4	95015312	56.01	8.88178e-12
4	96604083	56.11	8.88178e-12
4	98186031	56.21	8.88178e-12
4	99764003	56.31	8.88178e-12
4	101342477	56.41	8.88178e-12
4	102929913	56.51	8.88178e-12
4	104503797	56.61	8.88178e-12
4	106089405	56.71	8.88178e-12
4	107664338	56.81	8.88178e-12
4	109253527	56.91	8.88178e-12
4	110837722	57.01	8.88178e-12
4	112408645	57.11	8.88178e-12
4	113982650	57.21	8.88178e-12
4	115586830	57.31	8.88178e-12
4	117158093	57.41	8.88178e-12
4	118725015	57.51	8.88178e-12
4	120315880	57.61	8.88178e-12
4	121913397	57.71	8.88178e-12
4	123486323	57.81	8.88178e-12
4	125073637	57.91	8.88178e-12
4	126668795	58.01	8.88178e-12
4	128226690	58.11	8.88178e-12
4	129812670	58.21	8.88178e-12
4	131402322	58.31	8.88178e-12
4	132985575	58.41	8.88178e-12
4	134566265	58.51	8.88178e-12
4	136130026	58.61	8.88178e-12
4	137725898	58.71	8.88178e-12
4	139308879	58.81	8.88178e-12
4	140878360	58.91	8.88178e-12
4	142469184	59.01	8.88178e-12
4	144052503	59.11	8.88178e-12
4	145630648	59.21	8.88178e-12
4	147217297	59.31	8.88178e-12
4	148788257	59.41	8.88178e-12
4	150386959	59.51	8.88178e-12
4	151968344	59.61	8.88178e-12
4	153547118	59.71	8.88178e-12
4	155138514	59.81	8.88178e-12
4	156719047	59.91	8.88178e-12
4	158279225	60.01	-8
4	159874395	60.11	-8
4	161455331	60.21	-8
4	163034981	60.31	-8
4	164618267	60.41	-8
4	166198246	60.51	-8
4	167798742	60.61	-8
4	169388726	60.71	-8
4	170957698	60.81	-8
4	172540354	60.91	-8
4	174139299	61.01	-8
4	175706992	61.11	-8
4	177303973	61.21	-8
4	178878661	61.31	-8
4	180466099	61.41	-8
4	182049558	61.51	-8
4	183621373	61.61	-8
4	185207507	61.71	-8
4	186792475	61.81	-8
4	188352765	61.91	-8
4	189936812	62.01	-8
4	191542975	62.11	-8
4	193097798	62.21	-8
4	194677758	62.31	-8
4	196271675	62.41	-8
4	197848695	62.51	-8
4	199438116	62.61	-8
4	201007446	62.71	-8
4	202595087	62.81	-8
4	204174319	62.91	-8
4	205752535	63.01	-8
4	207345697	63.11	-8
4	208923845	63.21	-8
4	210511459	63.31	-8
4	212086010	63.41	-8
4	213664738	63.51	-8
4	215255448	63.61	-8
4	216837072	63.71	-8
4	218416157	63.81	-8
4	220000458	63.91	-8
4	221578281	64.01	0
4	223143530	64.11	0
4	224721040	64.21	0
4	226316116	64.31	0
4	227891973	64.41	0
4	229475576	64.51	0
4	231060874	64.61	0
4	232630742	64.71	0
4	234228106	64.81	0
4	235799637	64.91	0
4	237384201	65.01	0
4	238959335	65.11	0
4	240539354	65.21	0
4	242127286	65.31	0
4	243702382	65.41	0
4	245297750	65.51	0
4	246868285	65.61	0
4	248448260	65.71	0
4	250023530	65.81	0
4	251603784	65.91	0
4	253191291	66.01	0
4	254764935	66.11	0
4	256364420	66.21	0
4	257920687	66.31	0
4	259510946	66.41	0
4	261092679	66.51	0
4	262676325	66.61	0
4	264262430	66.71	0
4	265840156	66.81	0
4	267424674	66.91	0
4	268992872	67.01	0
4	270591205	67.11	0
4	272168029	67.21	0
4	273750804	67.31	0
4	275333578	67.41	0
4	276905015	67.51	0
4	278496795	67.61	0
4	280081027	67.71	0
4	281660877	67.81	0
4	283260436	67.91	0
4	284833488	68.01	0
4	286408649	68.11	0
4	287988768	68.21	0
4	289572342	68.31	0
4	291155028	68.41	0
4	292732082	68.51	0
4	294315612	68.61	0
4	295892407	68.71	0
4	297469510	68.81	0
4	299045251	68.91	0
4	300642284	69.01	0
4	302230655	69.11	0
4	303798081	69.21	0
4	305375901	69.31	0
4	306965388	69.41	0
4	308540457	69.51	0
4	310124600	69.61	0
4	311711905	69.71	0
4	313287991	69.81	0
4	314862627	69.91	0
3	232	1.11	-0.000358191
3	645	1.21	-0.000681704
3	1067	1.31	-0.00093487
3	1494	1.41	-0.00112579
3	1929	1.51	-0.00126221
3	2356	1.61	-0.00135149
3	2789	1.71	-0.00140049
3	3218	1.81	-0.00141557
3	3645	1.91	-0.00140255
3	4079	2.01	-0.00136671
3	4506	2.11	-0.0013128
3	4933	2.21	-0.00124502
3	5351	2.31	-0.0011671
3	5784	2.41	-0.00108223
3	6217	2.51	-0.000993208
3	6644	2.61	-0.000902362
3	7065	2.71	-0.000811651
3	7492	2.81	-0.000722679
3	7922	2.91	-0.000636729
3	8362	3.01	-0.0005548
3	8795	3.11	-0.000477639
3	9210	3.21	-0.000405773
3	9643	3.31	-0.00033954
3	10073	3.41	-0.000279116
3	10503	3.51	-0.000224541
3	10936	3.61	-0.000175743
3	11351	3.71	-0.00013256
3	11784	3.81	-9.47571e-05
3	12217	3.91	-6.2046e-05
3	12648	4.01	-3.40986e-05
3	13081	4.11	-1.05605e-05
3	13508	4.21	8.93844e-06
3	13941	4.31	2.4774e-05
3	14374	4.41	3.73203e-05
3	14801	4.51	4.69433e-05
3	15228	4.61	5.39956e-05
3	15661	4.71	5.88124e-05
3	16088	4.81	6.1709e-05
3	16515	4.91	6.29785e-05
3	16949	5.01	6.28903e-05
3	17379	5.11	6.169e-05
3	17809	5.21	5.95988e-05
3	18242	5.31	5.68144e-05
3	18672	5.41	5.35112e-05
3	19102	5.51	4.98416e-05
3	19535	5.61	4.59373e-05
3	19968	5.71	4.19105e-05
3	20389	5.81	3.78555e-05
3	20822	5.91	3.38499e-05
3	21262	6.01	2.99569e-05
3	21689	6.11	2.62259e-05
3	22116	6.21	2.26948e-05
3	22537	6.31	1.93911e-05
3	22958	6.41	1.6333e-05
3	23391	6.51	1.35314e-05
3	23824	6.61	1.09904e-05
3	24257	6.71	8.70882e-06
3	24690	6.81	6.6809e-06
3	25123	6.91	4.89747e-06
3	25548	7.01	3.3466e-06
3	25972	7.11	2.01432e-06
3	26399	7.21	8.85256e-07
3	26832	7.31	-5.68459e-08
3	27265	7.41	-8.28678e-07
3	27692	7.51	-1.44699e-06
3	28125	7.61	-1.92826e-06
3	28558	7.71	-2.28849e-06
3	28988	7.81	-2.54296e-06
3	29421	7.91	-2.7061e-06
3	29855	8.01	-2.79139e-06
3	30279	8.11	-2.8113e-06
3	30709	8.21	-2.77721e-06
3	31136	8.31	-2.69943e-06
3	31569	8.41	-2.58721e-06
3	31999	8.51	-2.44874e-06
3	32432	8.61	-2.29123e-06
3	32853	8.71	-2.12092e-06
3	33244	8.81	-1.94317e-06
3	33677	8.91	-1.7625e-06
3	34111	9.01	-1.58267e-06
3	34535	9.11	-1.40677e-06
3	34968	9.21	-1.23723e-06
3	35398	9.31	-1.07596e-06
3	35831	9.41	-9.24364e-07
3	36264	9.51	-7.83424e-07
3	36697	9.61	-6.53753e-07
3	37130	9.71	-5.35652e-07
3	37557	9.81	-4.2916e-07
3	37987	9.91	-3.34103e-07
3	38421	10.01	-2.5013e-07
3	38851	10.11	-1.76757e-07
3	39284	10.21	-1.13395e-07
3	39717	10.31	-5.93825e-08
3	40147	10.41	-1.40084e-08
3	40580	10.51	2.34657e-08
3	41013	10.61	5.3787e-08
3	41428	10.71	7.76954e-08
3	41861	10.81	9.59155e-08
3	42288	10.91	1.09142e-07
3	42728	11.01	1.18035e-07
3	43155	11.11	1.23212e-07
3	43585	11.21	1.2525e-07
3	44015	11.31	1.24675e-07
3	44445	11.41	1.21968e-07
3	44875	11.51	1.17559e-07
3	45308	11.61	1.11834e-07
3	45735	11.71	1.05132e-07
3	46168	11.81	9.77476e-08
3	46592	11.91	8.99373e-08
3	47032	12.01	8.19171e-08
3	47465	12.11	7.38677e-08
3	47889	12.21	6.59401e-08
3	48322	12.31	5.82538e-08
3	48755	12.41	5.09036e-08
3	49182	12.51	4.39606e-08
3	49615	12.61	3.74765e-08
3	50048	12.71	3.14852e-08
3	50436	12.81	2.60055e-08
3	50869	12.91	2.10438e-08
3	51303	13.01	1.65958e-08
3	51730	13.11	1.26498e-08
3	52163	13.21	9.18554e-09
3	52596	13.31	6.17888e-09
3	53029	13.41	3.60174e-09
3	53414	13.51	1.42322e-09
3	53826	13.61	-3.90088e-10
3	54259	13.71	-1.8705e-09
3	54683	13.81	-3.05107e-09
3	55113	13.91	-3.96518e-09
3	55553	14.01	-4.64375e-09
3	55980	14.11	-5.11768e-09
3	56410	14.21	-5.41434e-09
3	56828	14.31	-5.56071e-09
3	57261	14.41	-5.58096e-09
3	57694	14.51	-5.49747e-09
3	58118	14.61	-5.33085e-09
3	58551	14.71	-5.09743e-09
3	58978	14.81	-4.81464e-09
3	59372	14.91	-4.49667e-09
3	59812	15.01	-4.15525e-09
3	60239	15.11	-3.80034e-09
3	60654	15.21	-3.44151e-09
3	61087	15.31	-3.08518e-09
3	61517	15.41	-2.73772e-09
3	61950	15.51	-2.40306e-09
3	62377	15.61	-2.08544e-09
3	62798	15.71	-1.78773e-09
3	63225	15.81	-1.51132e-09
3	63646	15.91	-1.25766e-09
3	64080	16.01	-1.02673e-09
3	64501	16.11	-8.18901e-10
3	64928	16.21	-6.33804e-10
3	65361	16.31	-4.70735e-10
3	65788	16.41	-3.28271e-10
3	66212	16.51	-2.05702e-10
3	66642	16.61	-1.00897e-10
3	67063	16.71	-1.35003e-11
3	67490	16.81	5.82645e-11
3	67923	16.91	1.16174e-10
3	68357	17.01	1.61648e-10
3	68784	17.11	1.95755e-10
3	69211	17.21	2.20624e-10
3	69644	17.31	2.36966e-10
3	70074	17.41	2.45848e-10
3	70498	17.51	2.4869e-10
3	70913	17.61	2.46914e-10
3	71346	17.71	2.40874e-10
3	71773	17.81	2.31282e-10
3	72203	17.91	2.19913e-10
3	72622	18.01	2.05702e-10
3	73049	18.11	1.91491e-10
3	73476	18.21	1.7657e-10
3	73906	18.31	1.59872e-10
3	74333	18.41	1.44595e-10
3	74766	18.51	1.30385e-10
3	75187	18.61	1.16174e-10
3	75614	18.71	1.01963e-10
3	76041	18.81	8.7752e-11
3	76474	18.91	7.35412e-11
3	76896	19.01	6.21725e-11
3	77329	19.11	5.15143e-11
3	77762	19.21	4.08562e-11
3	78192	19.31	3.16192e-11
3	78619	19.41	2.45137e-11
3	79043	19.51	1.74083e-11
3	79473	19.61	1.03029e-11
3	79906	19.71	6.03961e-12
3	80333	19.81	2.4869e-12
3	80763	19.91	-1.06581e-12
3	81200	20.01	-4.61853e-12
3	81630	20.11	-8.17124e-12
3	82060	20.21	-8.88178e-12
3	82487	20.31	-8.88178e-12
3	82920	20.41	-8.88178e-12
3	83353	20.51	-8.88178e-12
3	83777	20.61	-8.88178e-12
3	84207	20.71	-8.88178e-12
3	84640	20.81	-8.88178e-12
3	85073	20.91	-8.88178e-12
3	85510	21.01	-8.88178e-12
3	85922	21.11	-8.88178e-12
3	86352	21.21	-8.88178e-12
3	86785	21.31	-8.88178e-12
3	87203	21.41	-8.88178e-12
3	87615	21.51	-8.88178e-12
3	88045	21.61	-8.88178e-12
3	88472	21.71	-8.88178e-12
3	88905	21.81	-8.88178e-12
3	89332	21.91	-8.88178e-12
3	89766	22.01	-8.88178e-12
3	90187	22.11	-8.88178e-12
3	90614	22.21	-8.17124e-12
3	91047	22.31	-7.4607e-12
3	91474	22.41	-6.75016e-12
3	91868	22.51	-6.03961e-12
3	92283	22.61	-5.68434e-12
3	92716	22.71	-4.9738e-12
3	93146	22.81	-4.61853e-12
3	93573	22.91	-4.26326e-12
3	94010	23.01	-3.55271e-12
3	94434	23.11	-3.19744e-12
3	94867	23.21	-3.19744e-12
3	95294	23.31	-2.84217e-12
3	95685	23.41	-2.4869e-12
3	96103	23.51	-2.13163e-12
3	96530	23.61	-2.13163e-12
3	96918	23.71	-1.77636e-12
3	97351	23.81	-1.77636e-12
3	97784	23.91	-1.42109e-12
3	98185	24.01	-1.42109e-12
3	98618	24.11	-1.06581e-12
3	99039	24.21	-1.06581e-12
3	99466	24.31	-1.06581e-12
3	99899	24.41	-1.06581e-12
3	100326	24.51	-7.10543e-13
3	100759	24.61	-7.10543e-13
3	101186	24.71	-7.10543e-13
3	101616	24.81	-7.10543e-13
3	102031	24.91	-7.10543e-13
3	102471	25.01	-3.55271e-13
3	102886	25.11	-3.55271e-13
3	103319	25.21	-3.55271e-13
3	103743	25.31	-3.55271e-13
3	104170	25.41	-3.55271e-13
3	104597	25.51	-3.55271e-13
3	105024	25.61	-3.55271e-13
3	105457	25.71	-3.55271e-13
3	105890	25.81	-3.55271e-13
3	106320	25.91	-3.55271e-13
3	106760	26.01	0
3	107187	26.11	0
3	107620	26.21	0
3	108053	26.31	0
3	108471	26.41	0
3	108892	26.51	0
3	109325	26.61	0
3	109758	26.71	0
3	110191	26.81	0
3	110621	26.91	0
3	111061	27.01	0
3	111491	27.11	0
3	111918	27.21	0
3	112351	27.31	0
3	112772	27.41	0
3	113199	27.51	0
3	113632	27.61	0
3	114050	27.71	0
3	114477	27.81	0
3	114904	27.91	0
3	115344	28.01	0
3	115777	28.11	0
3	116207	28.21	0
3	116640	28.31	0
3	117073	28.41	0
3	117500	28.51	0
3	117930	28.61	0
3	118363	28.71	0
3	118790	28.81	0
3	119217	28.91	0
3	119645	29.01	0
3	120078	29.11	0
3	120505	29.21	0
3	120923	29.31	0
3	121356	29.41	0
3	121780	29.51	0
3	122207	29.61	0
3	122637	29.71	0
3	123067	29.81	0
3	123500	29.91	0
3	123937	30.01	0
3	124367	30.11	0
3	124794	30.21	0
3	125221	30.31	0
3	125639	30.41	0
3	126072	30.51	0
3	126505	30.61	0
3	126938	30.71	0
3	127368	30.81	0
3	127795	30.91	0
3	128235	31.01	0
3	128656	31.11	0
3	129089	31.21	0
3	129522	31.31	0
3	129952	31.41	0
3	130376	31.51	0
3	130803	31.61	0
3	131233	31.71	0
3	131645	31.81	0
3	132060	31.91	0
3	132500	32.01	0
3	132930	32.11	0
3	133315	32.21	0
3	133742	32.31	0
3	134172	32.41	0
3	134605	32.51	0
3	135038	32.61	0
3	135471	32.71	0
3	135892	32.81	0
3	136322	32.91	0
3	136762	33.01	0
3	137195	33.11	0
3	137622	33.21	0
3	138016	33.31	0
3	138449	33.41	0
3	138882	33.51	0
3	139309	33.61	0
3	139742	33.71	0
3	140169	33.81	0
3	140596	33.91	0
3	141018	34.01	0
3	141442	34.11	0
3	141872	34.21	0
3	142305	34.31	0
3	142738	34.41	0
3	143165	34.51	0
3	143583	34.61	0
3	144016	34.71	0
3	144446	34.81	0
3	144876	34.91	0
3	145316	35.01	0
3	145743	35.11	0
3	146164	35.21	0
3	146585	35.31	0
3	147018	35.41	0
3	147403	35.51	0
3	147827	35.61	0
3	148254	35.71	0
3	148687	35.81	0
3	149114	35.91	0
3	149554	36.01	0
3	149984	36.11	0
3	150408	36.21	0
3	150841	36.31	0
3	151271	36.41	0
3	151701	36.51	0
3	152134	36.61	0
3	152561	36.71	0
3	152985	36.81	0
3	153403	36.91	0
3	153837	37.01	0
3	154258	37.11	0
3	154688	37.21	0
3	155109	37.31	0
3	155539	37.41	0
3	155963	37.51	0
3	156393	37.61	0
3	156826	37.71	0
3	157253	37.81	0
3	157668	37.91	0
3	158102	38.01	0
3	158535	38.11	0
3	158962	38.21	0
3	159395	38.31	0
3	159828	38.41	0
3	160246	38.51	0
3	160679	38.61	0
3	161112	38.71	0
3	161536	38.81	0
3	161960	38.91	0
3	162394	39.01	0
3	162821	39.11	0
3	163254	39.21	0
3	163681	39.31	0
3	164114	39.41	0
3	164547	39.51	0
3	164974	39.61	0
3	165404	39.71	0
3	165831	39.81	0
3	166264	39.91	0
3	166698	40.01	0
3	167131	40.11	0
3	167555	40.21	0
3	167982	40.31	0
3	168406	40.41	0
3	168833	40.51	0
3	169266	40.61	0
3	169693	40.71	0
3	170078	40.81	0
3	170508	40.91	0
3	170942	41.01	0
3	171354	41.11	0
3	171781	41.21	0
3	172211	41.31	0
3	172635	41.41	0
3	173062	41.51	0
3	173492	41.61	0
3	173919	41.71	0
3	174352	41.81	0
3	174785	41.91	0
3	175219	42.01	0
3	175643	42.11	0
3	176064	42.21	0
3	176497	42.31	0
3	176927	42.41	0
3	177360	42.51	0
3	177763	42.61	0
3	178190	42.71	0
3	178623	42.81	0
3	179056	42.91	0
3	179490	43.01	0
3	179923	43.11	0
3	180335	43.21	0
3	180768	43.31	0
3	181195	43.41	0
3	181619	43.51	0
3	182049	43.61	0
3	182482	43.71	0
3	182912	43.81	0
3	183342	43.91	0
3	183782	44.01	0
3	184215	44.11	0
3	184636	44.21	0
3	185069	44.31	0
3	185502	44.41	0
3	185923	44.51	0
3	186350	44.61	0
3	186783	44.71	0
3	187210	44.81	0
3	187622	44.91	0
3	188059	45.01	0
3	188489	45.11	0
3	188919	45.21	0
3	189343	45.31	0
3	189734	45.41	0
3	190122	45.51	0
3	190546	45.61	0
3	190976	45.71	0
3	191403	45.81	0
3	191827	45.91	0
3	192267	46.01	0
3	192700	46.11	0
3	193127	46.21	0
3	193548	46.31	0
3	193975	46.41	0
3	194408	46.51	0
3	194841	46.61	0
3	195274	46.71	0
3	195698	46.81	0
3	196125	46.91	0
3	196523	47.01	0
3	196950	47.11	0
3	197380	47.21	0
3	197813	47.31	0
3	198246	47.41	0
3	198670	47.51	0
3	199100	47.61	0
3	199524	47.71	0
3	199957	47.81	0
3	200384	47.91	0
3	200815	48.01	0
3	201206	48.11	0
3	201639	48.21	0
3	202066	48.31	0
3	202499	48.41	0
3	202923	48.51	0
3	203353	48.61	0
3	203741	48.71	0
3	204168	48.81	0
3	204586	48.91	0
3	205026	49.01	0
3	205453	49.11	0
3	205886	49.21	0
3	206319	49.31	0
3	206752	49.41	0
3	207179	49.51	0
3	207612	49.61	0
3	208045	49.71	0
3	208472	49.81	0
3	208899	49.91	0
3	209331	50.01	0
3	1708616	50.11	0
3	3294397	50.21	0
3	4868593	50.31	0
3	6464194	50.41	0
3	8037175	50.51	0
3	9609960	50.61	0
3	11209489	50.71	0
3	12796174	50.81	0
3	14367476	50.91	0
3	15950334	51.01	0
3	17526660	51.11	0
3	19109133	51.21	0
3	20687632	51.31	0
3	22262992	51.41	0
3	23853416	51.51	0
3	25421974	51.61	0
3	27008205	51.71	0
3	28593815	51.81	0
3	30185927	51.91	0
3	31747822	52.01	0
3	33342705	52.11	0
3	34916500	52.21	0
3	36509655	52.31	0
3	38071991	52.41	0
3	39654064	52.51	0
3	41242034	52.61	0
3	42816653	52.71	0
3	44404235	52.81	0
3	45998561	52.91	0
3	47581154	53.01	0
3	49156672	53.11	0
3	50743255	53.21	0
3	52323941	53.31	0
3	53908663	53.41	0
3	55490724	53.51	0
3	57062583	53.61	0
3	58656544	53.71	0
3	60227988	53.81	0
3	61806174	53.91	0
3	63388629	54.01	0
3	64976577	54.11	0
3	66549158	54.21	0
3	68136542	54.31	0
3	69708486	54.41	0
3	71295266	54.51	0
3	72886574	54.61	0
3	74449922	54.71	0
3	76039471	54.81	0
3	77635833	54.91	0
3	79220706	55.01	0
3	80797648	55.11	0
3	82383709	55.21	0
3	83955331	55.31	0
3	85542687	55.41	0
3	87115577	55.51	0
3	88695832	55.61	0
3	90278226	55.71	0
3	91849959	55.81	0
3	93439143	55.91	0
3	95015312	56.01	0
3	96604083	56.11	0
3	98186031	56.21	0
3	99764003	56.31	0
3	101342477	56.41	0
3	102929913	56.51	0
3	104503797	56.61	0
3	106089405	56.71	0
3	107664338	56.81	0
3	109253527	56.91	0
3	110837722	57.01	0
3	112408645	57.11	0
3	113982650	57.21	0
3	115586830	57.31	0
3	117158093	57.41	0
3	118725015	57.51	0
3	120315880	57.61	0
3	121913397	57.71	0
3	123486323	57.81	0
3	125073637	57.91	0
3	126668795	58.01	0
3	128226690	58.11	0
3	129812670	58.21	0
3	131402322	58.31	0
3	132985575	58.41	0
3	134566265	58.51	0
3	136130026	58.61	0
3	137725898	58.71	0
3	139308879	58.81	0
3	140878360	58.91	0
3	142469184	59.01	0
3	144052503	59.11	0
3	145630648	59.21	0
3	147217297	59.31	0
3	148788257	59.41	0
3	150386959	59.51	0
3	151968344	59.61	0
3	153547118	59.71	0
3	155138514	59.81	0
3	156719047	59.91	0
3	158279225	60.01	-0.156863
3	159874395	60.11	-1.5659
3	161455331	60.21	-2.72179
3	163034981	60.31	-3.67003
3	164618267	60.41	-4.44792
3	166198246	60.51	-5.08606
3	167798742	60.61	-5.60955
3	169388726	60.71	-6.039
3	170957698	60.81	-6.3913
3	172540354	60.91	-6.6803
3	174139299	61.01	-6.91739
3	175706992	61.11	-7.11188
3	177303973	61.21	-7.27143
3	178878661	61.31	-7.40232
3	180466099	61.41	-7.5097
3	182049558	61.51	-7.59778
3	183621373	61.61	-7.67004
3	185207507	61.71	-7.72932
3	186792475	61.81	-7.77795
3	188352765	61.91	-7.81784
3	189936812	62.01	-7.85056
3	191542975	62.11	-7.87741
3	193097798	62.21	-7.89943
3	194677758	62.31	-7.9175
3	196271675	62.41	-7.93232
3	197848695	62.51	-7.94448
3	199438116	62.61	-7.95445
3	201007446	62.71	-7.96264
3	202595087	62.81	-7.96935
3	204174319	62.91	-7.97486
3	205752535	63.01	-7.97937
3	207345697	63.11	-7.98308
3	208923845	63.21	-7.98612
3	210511459	63.31	-7.98861
3	212086010	63.41	-7.99066
3	213664738	63.51	-7.99234
3	215255448	63.61	-7.99371
3	216837072	63.71	-7.99484
3	218416157	63.81	-7.99577
3	220000458	63.91	-7.99653
3	221578281	64.01	0
3	223143530	64.11	0
3	224721040	64.21	0
3	226316116	64.31	0
3	227891973	64.41	0
3	229475576	64.51	0
3	231060874	64.61	0
3	232630742	64.71	0
3	234228106	64.81	0
3	235799637	64.91	0
3	237384201	65.01	0
3	238959335	65.11	0
3	240539354	65.21	0
3	242127286	65.31	0
3	243702382	65.41	0
3	245297750	65.51	0
3	246868285	65.61	0
3	248448260	65.71	0
3	250023530	65.81	0
3	251603784	65.91	0
3	253191291	66.01	0
3	254764935	66.11	0
3	256364420	66.21	0
3	257920687	66.31	0
3	259510946	66.41	0
3	261092679	66.51	0
3	262676325	66.61	0
3	264262430	66.71	0
3	265840156	66.81	0
3	267424674	66.91	0
3	268992872	67.01	0
3	270591205	67.11	0
3	272168029	67.21	0
3	273750804	67.31	0
3	275333578	67.41	0
3	276905015	67.51	0
3	278496795	67.61	0
3	280081027	67.71	0
3	281660877	67.81	0
3	283260436	67.91	0
3	284833488	68.01	0
3	286408649	68.11	0
3	287988768	68.21	0
3	289572342	68.31	0
3	291155028	68.41	0
3	292732082	68.51	0
3	294315612	68.61	0
3	295892407	68.71	0
3	297469510	68.81	0
3	299045251	68.91	0
3	300642284	69.01	0
3	302230655	69.11	0
3	303798081	69.21	0
3	305375901	69.31	0
3	306965388	69.41	0
3	308540457	69.51	0
3	310124600	69.61	0
3	311711905	69.71	0
3	313287991	69.81	0
3	314862627	69.91	0
7	232	1.11	242.45
7	645	1.21	242.45
7	1067	1.31	242.45
7	1494	1.41	242.45
7	1929	1.51	242.45
7	2356	1.61	242.45
7	2789	1.71	242.45
7	3218	1.81	242.45
7	3645	1.91	242.45
7	4079	2.01	242.45
7	4506	2.11	242.45
7	4933	2.21	242.45
7	5351	2.31	242.45
7	5784	2.41	242.45
7	6217	2.51	242.45
7	6644	2.61	242.45
7	7065	2.71	242.45
7	7492	2.81	242.45
7	7922	2.91	242.45
7	8362	3.01	242.45
7	8795	3.11	242.45
7	9210	3.21	242.45
7	9643	3.31	242.45
7	10073	3.41	242.45
7	10503	3.51	242.45
7	10936	3.61	242.45
7	11351	3.71	242.45
7	11784	3.81	242.45
7	12217	3.91	242.45
7	12648	4.01	242.45
7	13081	4.11	242.45
7	13508	4.21	242.45
7	13941	4.31	242.45
7	14374	4.41	242.45
7	14801	4.51	242.45
7	15228	4.61	242.45
7	15661	4.71	242.45
7	16088	4.81	242.45
7	16515	4.91	242.45
7	16949	5.01	242.45
7	17379	5.11	242.45
7	17809	5.21	242.45
7	18242	5.31	242.45
7	18672	5.41	242.45
7	19102	5.51	242.45
7	19535	5.61	242.45
7	19968	5.71	242.45
7	20389	5.81	242.45
7	20822	5.91	242.45
7	21262	6.01	242.45
7	21689	6.11	242.45
7	22116	6.21	242.45
7	22537	6.31	242.45
7	22958	6.41	242.45
7	23391	6.51	242.45
7	23824	6.61	242.45
7	24257	6.71	242.45
7	24690	6.81	242.45
7	25123	6.91	242.45
7	25548	7.01	242.45
7	25972	7.11	242.45
7	26399	7.21	242.45
7	26832	7.31	242.45
7	27265	7.41	242.45
7	27692	7.51	242.45
7	28125	7.61	242.45
7	28558	7.71	242.45
7	28988	7.81	242.45
7	29421	7.91	242.45
7	29855	8.01	242.45
7	30279	8.11	242.45
7	30709	8.21	242.45
7	31136	8.31	242.45
7	31569	8.41	242.45
7	31999	8.51	242.45
7	32432	8.61	242.45
7	32853	8.71	242.45
7	33244	8.81	242.45
7	33677	8.91	242.45
7	34111	9.01	242.45
7	34535	9.11	242.45
7	34968	9.21	242.45
7	35398	9.31	242.45
7	35831	9.41	242.45
7	36264	9.51	242.45
7	36697	9.61	242.45
7	37130	9.71	242.45
7	37557	9.81	242.45
7	37987	9.91	242.45
7	38421	10.01	242.45
7	38851	10.11	242.45
7	39284	10.21	242.45
7	39717	10.31	242.45
7	40147	10.41	242.45
7	40580	10.51	242.45
7	41013	10.61	242.45
7	41428	10.71	242.45
7	41861	10.81	242.45
7	42288	10.91	242.45
7	42728	11.01	242.45
7	43155	11.11	242.45
7	43585	11.21	242.45
7	44015	11.31	242.45
7	44445	11.41	242.45
7	44875	11.51	242.45
7	45308	11.61	242.45
7	45735	11.71	242.45
7	46168	11.81	242.45
7	46592	11.91	242.45
7	47032	12.01	242.45
7	47465	12.11	242.45
7	47889	12.21	242.45
7	48322	12.31	242.45
7	48755	12.41	242.45
7	49182	12.51	242.45
7	49615	12.61	242.45
7	50048	12.71	242.45
7	50436	12.81	242.45
7	50869	12.91	242.45
7	51303	13.01	242.45
7	51730	13.11	242.45
7	52163	13.21	242.45
7	52596	13.31	242.45
7	53029	13.41	242.45
7	53414	13.51	242.45
7	53826	13.61	242.45
7	54259	13.71	242.45
7	54683	13.81	242.45
7	55113	13.91	242.45
7	55553	14.01	242.45
7	55980	14.11	242.45
7	56410	14.21	242.45
7	56828	14.31	242.45
7	57261	14.41	242.45
7	57694	14.51	242.45
7	58118	14.61	242.45
7	58551	14.71	242.45
7	58978	14.81	242.45
7	59372	14.91	242.45
7	59812	15.01	242.45
7	60239	15.11	242.45
7	60654	15.21	242.45
7	61087	15.31	242.45
7	61517	15.41	242.45
7	61950	15.51	242.45
7	62377	15.61	242.45
7	62798	15.71	242.45
7	63225	15.81	242.45
7	63646	15.91	242.45
7	64080	16.01	242.45
7	64501	16.11	242.45
7	64928	16.21	242.45
7	65361	16.31	242.45
7	65788	16.41	242.45
7	66212	16.51	242.45
7	66642	16.61	242.45
7	67063	16.71	242.45
7	67490	16.81	242.45
7	67923	16.91	242.45
7	68357	17.01	242.45
7	68784	17.11	242.45
7	69211	17.21	242.45
7	69644	17.31	242.45
7	70074	17.41	242.45
7	70498	17.51	242.45
7	70913	17.61	242.45
7	71346	17.71	242.45
7	71773	17.81	242.45
7	72203	17.91	242.45
7	72622	18.01	242.45
7	73049	18.11	242.45
7	73476	18.21	242.45
7	73906	18.31	242.45
7	74333	18.41	242.45
7	74766	18.51	242.45
7	75187	18.61	242.45
7	75614	18.71	242.45
7	76041	18.81	242.45
7	76474	18.91	242.45
7	76896	19.01	242.45
7	77329	19.11	242.45
7	77762	19.21	242.45
7	78192	19.31	242.45
7	78619	19.41	242.45
7	79043	19.51	242.45
7	79473	19.61	242.45
7	79906	19.71	242.45
7	80333	19.81	242.45
7	80763	19.91	242.45
7	81200	20.01	242.45
7	81630	20.11	242.45
7	82060	20.21	242.45
7	82487	20.31	242.45
7	82920	20.41	242.45
7	83353	20.51	242.45
7	83777	20.61	242.45
7	84207	20.71	242.45
7	84640	20.81	242.45
7	85073	20.91	242.45
7	85510	21.01	242.45
7	85922	21.11	242.45
7	86352	21.21	242.45
7	86785	21.31	242.45
7	87203	21.41	242.45
7	87615	21.51	242.45
7	88045	21.61	242.45
7	88472	21.71	242.45
7	88905	21.81	242.45
7	89332	21.91	242.45
7	89766	22.01	242.45
7	90187	22.11	242.45
7	90614	22.21	242.45
7	91047	22.31	242.45
7	91474	22.41	242.45
7	91868	22.51	242.45
7	92283	22.61	242.45
7	92716	22.71	242.45
7	93146	22.81	242.45
7	93573	22.91	242.45
7	94010	23.01	242.45
7	94434	23.11	242.45
7	94867	23.21	242.45
7	95294	23.31	242.45
7	95685	23.41	242.45
7	96103	23.51	242.45
7	96530	23.61	242.45
7	96918	23.71	242.45
7	97351	23.81	242.45
7	97784	23.91	242.45
7	98185	24.01	242.45
7	98618	24.11	242.45
7	99039	24.21	242.45
7	99466	24.31	242.45
7	99899	24.41	242.45
7	100326	24.51	242.45
7	100759	24.61	242.45
7	101186	24.71	242.45
7	101616	24.81	242.45
7	102031	24.91	242.45
7	102471	25.01	242.45
7	102886	25.11	242.45
7	103319	25.21	242.45
7	103743	25.31	242.45
7	104170	25.41	242.45
7	104597	25.51	242.45
7	105024	25.61	242.45
7	105457	25.71	242.45
7	105890	25.81	242.45
7	106320	25.91	242.45
7	106760	26.01	242.45
7	107187	26.11	242.45
7	107620	26.21	242.45
7	108053	26.31	242.45
7	108471	26.41	242.45
7	108892	26.51	242.45
7	109325	26.61	242.45
7	109758	26.71	242.45
7	110191	26.81	242.45
7	110621	26.91	242.45
7	111061	27.01	242.45
7	111491	27.11	242.45
7	111918	27.21	242.45
7	112351	27.31	242.45
7	112772	27.41	242.45
7	113199	27.51	242.45
7	113632	27.61	242.45
7	114050	27.71	242.45
7	114477	27.81	242.45
7	114904	27.91	242.45
7	115344	28.01	242.45
7	115777	28.11	242.45
7	116207	28.21	242.45
7	116640	28.31	242.45
7	117073	28.41	242.45
7	117500	28.51	242.45
7	117930	28.61	242.45
7	118363	28.71	242.45
7	118790	28.81	242.45
7	119217	28.91	242.45
7	119645	29.01	242.45
7	120078	29.11	242.45
7	120505	29.21	242.45
7	120923	29.31	242.45
7	121356	29.41	242.45
7	121780	29.51	242.45
7	122207	29.61	242.45
7	122637	29.71	242.45
7	123067	29.81	242.45
7	123500	29.91	242.45
7	123937	30.01	242.45
7	124367	30.11	242.45
7	124794	30.21	242.45
7	125221	30.31	242.45
7	125639	30.41	242.45
7	126072	30.51	242.45
7	126505	30.61	242.45
7	126938	30.71	242.45
7	127368	30.81	242.45
7	127795	30.91	242.45
7	128235	31.01	242.45
7	128656	31.11	242.45
7	129089	31.21	242.45
7	129522	31.31	242.45
7	129952	31.41	242.45
7	130376	31.51	242.45
7	130803	31.61	242.45
7	131233	31.71	242.45
7	131645	31.81	242.45
7	132060	31.91	242.45
7	132500	32.01	242.45
7	132930	32.11	242.45
7	133315	32.21	242.45
7	133742	32.31	242.45
7	134172	32.41	242.45
7	134605	32.51	242.45
7	135038	32.61	242.45
7	135471	32.71	242.45
7	135892	32.81	242.45
7	136322	32.91	242.45
7	136762	33.01	242.45
7	137195	33.11	242.45
7	137622	33.21	242.45
7	138016	33.31	242.45
7	138449	33.41	242.45
7	138882	33.51	242.45
7	139309	33.61	242.45
7	139742	33.71	242.45
7	140169	33.81	242.45
7	140596	33.91	242.45
7	141018	34.01	242.45
7	141442	34.11	242.45
7	141872	34.21	242.45
7	142305	34.31	242.45
7	142738	34.41	242.45
7	143165	34.51	242.45
7	143583	34.61	242.45
7	144016	34.71	242.45
7	144446	34.81	242.45
7	144876	34.91	242.45
7	145316	35.01	242.45
7	145743	35.11	242.45
7	146164	35.21	242.45
7	146585	35.31	242.45
7	147018	35.41	242.45
7	147403	35.51	242.45
7	147827	35.61	242.45
7	148254	35.71	242.45
7	148687	35.81	242.45
7	149114	35.91	242.45
7	149554	36.01	242.45
7	149984	36.11	242.45
7	150408	36.21	242.45
7	150841	36.31	242.45
7	151271	36.41	242.45
7	151701	36.51	242.45
7	152134	36.61	242.45
7	152561	36.71	242.45
7	152985	36.81	242.45
7	153403	36.91	242.45
7	153837	37.01	242.45
7	154258	37.11	242.45
7	154688	37.21	242.45
7	155109	37.31	242.45
7	155539	37.41	242.45
7	155963	37.51	242.45
7	156393	37.61	242.45
7	156826	37.71	242.45
7	157253	37.81	242.45
7	157668	37.91	242.45
7	158102	38.01	242.45
7	158535	38.11	242.45
7	158962	38.21	242.45
7	159395	38.31	242.45
7	159828	38.41	242.45
7	160246	38.51	242.45
7	160679	38.61	242.45
7	161112	38.71	242.45
7	161536	38.81	242.45
7	161960	38.91	242.45
7	162394	39.01	242.45
7	162821	39.11	242.45
7	163254	39.21	242.45
7	163681	39.31	242.45
7	164114	39.41	242.45
7	164547	39.51	242.45
7	164974	39.61	242.45
7	165404	39.71	242.45
7	165831	39.81	242.45
7	166264	39.91	242.45
7	166698	40.01	242.45
7	167131	40.11	242.45
7	167555	40.21	242.45
7	167982	40.31	242.45
7	168406	40.41	242.45
7	168833	40.51	242.45
7	169266	40.61	242.45
7	169693	40.71	242.45
7	170078	40.81	242.45
7	170508	40.91	242.45
7	170942	41.01	242.45
7	171354	41.11	242.45
7	171781	41.21	242.45
7	172211	41.31	242.45
7	172635	41.41	242.45
7	173062	41.51	242.45
7	173492	41.61	242.45
7	173919	41.71	242.45
7	174352	41.81	242.45
7	174785	41.91	242.45
7	175219	42.01	242.45
7	175643	42.11	242.45
7	176064	42.21	242.45
7	176497	42.31	242.45
7	176927	42.41	242.45
7	177360	42.51	242.45
7	177763	42.61	242.45
7	178190	42.71	242.45
7	178623	42.81	242.45
7	179056	42.91	242.45
7	179490	43.01	242.45
7	179923	43.11	242.45
7	180335	43.21	242.45
7	180768	43.31	242.45
7	181195	43.41	242.45
7	181619	43.51	242.45
7	182049	43.61	242.45
7	182482	43.71	242.45
7	182912	43.81	242.45
7	183342	43.91	242.45
7	183782	44.01	242.45
7	184215	44.11	242.45
7	184636	44.21	242.45
7	185069	44.31	242.45
7	185502	44.41	242.45
7	185923	44.51	242.45
7	186350	44.61	242.45
7	186783	44.71	242.45
7	187210	44.81	242.45
7	187622	44.91	242.45
7	188059	45.01	242.45
7	188489	45.11	242.45
7	188919	45.21	242.45
7	189343	45.31	242.45
7	189734	45.41	242.45
7	190122	45.51	242.45
7	190546	45.61	242.45
7	190976	45.71	242.45
7	191403	45.81	242.45
7	191827	45.91	242.45
7	192267	46.01	242.45
7	192700	46.11	242.45
7	193127	46.21	242.45
7	193548	46.31	242.45
7	193975	46.41	242.45
7	194408	46.51	242.45
7	194841	46.61	242.45
7	195274	46.71	242.45
7	195698	46.81	242.45
7	196125	46.91	242.45
7	196523	47.01	242.45
7	196950	47.11	242.45
7	197380	47.21	242.45
7	197813	47.31	242.45
7	198246	47.41	242.45
7	198670	47.51	242.45
7	199100	47.61	242.45
7	199524	47.71	242.45
7	199957	47.81	242.45
7	200384	47.91	242.45
7	200815	48.01	242.45
7	201206	48.11	242.45
7	201639	48.21	242.45
7	202066	48.31	242.45
7	202499	48.41	242.45
7	202923	48.51	242.45
7	203353	48.61	242.45
7	203741	48.71	242.45
7	204168	48.81	242.45
7	204586	48.91	242.45
7	205026	49.01	242.45
7	205453	49.11	242.45
7	205886	49.21	242.45
7	206319	49.31	242.45
7	206752	49.41	242.45
7	207179	49.51	242.45
7	207612	49.61	242.45
7	208045	49.71	242.45
7	208472	49.81	242.45
7	208899	49.91	242.45
7	209331	50.01	242.45
7	1708616	50.11	242.45
7	3294397	50.21	242.45
7	4868593	50.31	242.45
7	6464194	50.41	242.45
7	8037175	50.51	242.45
7	9609960	50.61	242.45
7	11209489	50.71	242.45
7	12796174	50.81	242.45
7	14367476	50.91	242.45
7	15950334	51.01	242.45
7	17526660	51.11	242.45
7	19109133	51.21	242.45
7	20687632	51.31	242.45
7	22262992	51.41	242.45
7	23853416	51.51	242.45
7	25421974	51.61	242.45
7	27008205	51.71	242.45
7	28593815	51.81	242.45
7	30185927	51.91	242.45
7	31747822	52.01	242.45
7	33342705	52.11	242.45
7	34916500	52.21	242.45
7	36509655	52.31	242.45
7	38071991	52.41	242.45
7	39654064	52.51	242.45
7	41242034	52.61	242.45
7	42816653	52.71	242.45
7	44404235	52.81	242.45
7	45998561	52.91	242.45
7	47581154	53.01	242.45
7	49156672	53.11	242.45
7	50743255	53.21	242.45
7	52323941	53.31	242.45
7	53908663	53.41	242.45
7	55490724	53.51	242.45
7	57062583	53.61	242.45
7	58656544	53.71	242.45
7	60227988	53.81	242.45
7	61806174	53.91	242.45
7	63388629	54.01	242.45
7	64976577	54.11	242.45
7	66549158	54.21	242.45
7	68136542	54.31	242.45
7	69708486	54.41	242.45
7	71295266	54.51	242.45
7	72886574	54.61	242.45
7	74449922	54.71	242.45
7	76039471	54.81	242.45
7	77635833	54.91	242.45
7	79220706	55.01	242.45
7	80797648	55.11	242.45
7	82383709	55.21	242.45
7	83955331	55.31	242.45
7	85542687	55.41	242.45
7	87115577	55.51	242.45
7	88695832	55.61	242.45
7	90278226	55.71	242.45
7	91849959	55.81	242.45
7	93439143	55.91	242.45
7	95015312	56.01	242.45
7	96604083	56.11	242.45
7	98186031	56.21	242.45
7	99764003	56.31	242.45
7	101342477	56.41	242.45
7	102929913	56.51	242.45
7	104503797	56.61	242.45
7	106089405	56.71	242.45
7	107664338	56.81	242.45
7	109253527	56.91	242.45
7	110837722	57.01	242.45
7	112408645	57.11	242.45
7	113982650	57.21	242.45
7	115586830	57.31	242.45
7	117158093	57.41	242.45
7	118725015	57.51	242.45
7	120315880	57.61	242.45
7	121913397	57.71	242.45
7	123486323	57.81	242.45
7	125073637	57.91	242.45
7	126668795	58.01	242.45
7	128226690	58.11	242.45
7	129812670	58.21	242.45
7	131402322	58.31	242.45
7	132985575	58.41	242.45
7	134566265	58.51	242.45
7	136130026	58.61	242.45
7	137725898	58.71	242.45
7	139308879	58.81	242.45
7	140878360	58.91	242.45
7	142469184	59.01	242.45
7	144052503	59.11	242.45
7	145630648	59.21	242.45
7	147217297	59.31	242.45
7	148788257	59.41	242.45
7	150386959	59.51	242.45
7	151968344	59.61	242.45
7	153547118	59.71	242.45
7	155138514	59.81	242.45
7	156719047	59.91	242.45
7	158279225	60.01	242.45
7	159874395	60.11	242.45
7	161455331	60.21	242.45
7	163034981	60.31	242.45
7	164618267	60.41	242.45
7	166198246	60.51	242.45
7	167798742	60.61	242.45
7	169388726	60.71	242.45
7	170957698	60.81	242.45
7	172540354	60.91	242.45
7	174139299	61.01	242.45
7	175706992	61.11	242.45
7	177303973	61.21	242.45
7	178878661	61.31	242.45
7	180466099	61.41	242.45
7	182049558	61.51	242.45
7	183621373	61.61	242.45
7	185207507	61.71	242.45
7	186792475	61.81	242.45
7	188352765	61.91	242.45
7	189936812	62.01	242.45
7	191542975	62.11	242.45
7	193097798	62.21	242.45
7	194677758	62.31	242.45
7	196271675	62.41	242.45
7	197848695	62.51	242.45
7	199438116	62.61	242.45
7	201007446	62.71	242.45
7	202595087	62.81	242.45
7	204174319	62.91	242.45
7	205752535	63.01	242.45
7	207345697	63.11	242.45
7	208923845	63.21	242.45
7	210511459	63.31	242.45
7	212086010	63.41	242.45
7	213664738	63.51	242.45
7	215255448	63.61	242.45
7	216837072	63.71	242.45
7	218416157	63.81	242.45
7	220000458	63.91	242.45
7	221578281	64.01	242.45
7	223143530	64.11	242.45
7	224721040	64.21	242.45
7	226316116	64.31	242.45
7	227891973	64.41	242.45
7	229475576	64.51	242.45
7	231060874	64.61	242.45
7	232630742	64.71	242.45
7	234228106	64.81	242.45
7	235799637	64.91	242.45
7	237384201	65.01	242.45
7	238959335	65.11	242.45
7	240539354	65.21	242.45
7	242127286	65.31	242.45
7	243702382	65.41	242.45
7	245297750	65.51	242.45
7	246868285	65.61	242.45
7	248448260	65.71	242.45
7	250023530	65.81	242.45
7	251603784	65.91	242.45
7	253191291	66.01	242.45
7	254764935	66.11	242.45
7	256364420	66.21	242.45
7	257920687	66.31	242.45
7	259510946	66.41	242.45
7	261092679	66.51	242.45
7	262676325	66.61	242.45
7	264262430	66.71	242.45
7	265840156	66.81	242.45
7	267424674	66.91	242.45
7	268992872	67.01	242.45
7	270591205	67.11	242.45
7	272168029	67.21	242.45
7	273750804	67.31	242.45
7	275333578	67.41	242.45
7	276905015	67.51	242.45
7	278496795	67.61	242.45
7	280081027	67.71	242.45
7	281660877	67.81	242.45
7	283260436	67.91	242.45
7	284833488	68.01	242.45
7	286408649	68.11	242.45
7	287988768	68.21	242.45
7	289572342	68.31	242.45
7	291155028	68.41	242.45
7	292732082	68.51	242.45
7	294315612	68.61	242.45
7	295892407	68.71	242.45
7	297469510	68.81	242.45
7	299045251	68.91	242.45
7	300642284	69.01	242.45
7	302230655	69.11	242.45
7	303798081	69.21	242.45
7	305375901	69.31	242.45
7	306965388	69.41	242.45
7	308540457	69.51	242.45
7	310124600	69.61	242.45
7	311711905	69.71	242.45
7	313287991	69.81	242.45
7	314862627	69.91	242.45
6	232	1.11	58.8502
6	645	1.21	61.6282
6	1067	1.31	64.4062
6	1494	1.41	67.1842
6	1929	1.51	69.9621
6	2356	1.61	72.7401
6	2789	1.71	75.518
6	3218	1.81	78.296
6	3645	1.91	81.0739
6	4079	2.01	83.8518
6	4506	2.11	86.6297
6	4933	2.21	89.4075
6	5351	2.31	92.1854
6	5784	2.41	94.9632
6	6217	2.51	97.7411
6	6644	2.61	100.519
6	7065	2.71	103.297
6	7492	2.81	106.075
6	7922	2.91	108.852
6	8362	3.01	111.63
6	8795	3.11	114.408
6	9210	3.21	117.186
6	9643	3.31	119.964
6	10073	3.41	122.741
6	10503	3.51	125.519
6	10936	3.61	128.297
6	11351	3.71	131.075
6	11784	3.81	133.852
6	12217	3.91	136.63
6	12648	4.01	139.408
6	13081	4.11	142.186
6	13508	4.21	144.963
6	13941	4.31	147.741
6	14374	4.41	150.519
6	14801	4.51	153.297
6	15228	4.61	156.075
6	15661	4.71	158.852
6	16088	4.81	161.63
6	16515	4.91	164.408
6	16949	5.01	167.186
6	17379	5.11	169.963
6	17809	5.21	172.741
6	18242	5.31	175.519
6	18672	5.41	178.297
6	19102	5.51	181.075
6	19535	5.61	183.852
6	19968	5.71	186.63
6	20389	5.81	189.408
6	20822	5.91	192.186
6	21262	6.01	194.963
6	21689	6.11	197.741
6	22116	6.21	200.519
6	22537	6.31	203.297
6	22958	6.41	206.075
6	23391	6.51	208.852
6	23824	6.61	211.63
6	24257	6.71	214.408
6	24690	6.81	217.186
6	25123	6.91	219.963
6	25548	7.01	222.741
6	25972	7.11	225.519
6	26399	7.21	228.297
6	26832	7.31	231.075
6	27265	7.41	233.852
6	27692	7.51	236.63
6	28125	7.61	239.408
6	28558	7.71	242.186
6	28988	7.81	244.963
6	29421	7.91	247.741
6	29855	8.01	250.519
6	30279	8.11	253.297
6	30709	8.21	256.075
6	31136	8.31	258.852
6	31569	8.41	261.63
6	31999	8.51	264.408
6	32432	8.61	267.186
6	32853	8.71	269.963
6	33244	8.81	272.741
6	33677	8.91	275.519
6	34111	9.01	278.297
6	34535	9.11	281.075
6	34968	9.21	283.852
6	35398	9.31	286.63
6	35831	9.41	289.408
6	36264	9.51	292.186
6	36697	9.61	294.963
6	37130	9.71	297.741
6	37557	9.81	300.519
6	37987	9.91	303.297
6	38421	10.01	306.075
6	38851	10.11	308.852
6	39284	10.21	311.63
6	39717	10.31	314.408
6	40147	10.41	317.186
6	40580	10.51	319.964
6	41013	10.61	322.741
6	41428	10.71	325.519
6	41861	10.81	328.297
6	42288	10.91	331.075
6	42728	11.01	333.852
6	43155	11.11	336.63
6	43585	11.21	339.408
6	44015	11.31	342.186
6	44445	11.41	344.964
6	44875	11.51	347.741
6	45308	11.61	350.519
6	45735	11.71	353.297
6	46168	11.81	356.075
6	46592	11.91	358.852
6	47032	12.01	361.63
6	47465	12.11	364.408
6	47889	12.21	367.186
6	48322	12.31	369.964
6	48755	12.41	372.741
6	49182	12.51	375.519
6	49615	12.61	378.297
6	50048	12.71	381.075
6	50436	12.81	383.852
6	50869	12.91	386.63
6	51303	13.01	389.408
6	51730	13.11	392.186
6	52163	13.21	394.964
6	52596	13.31	397.741
6	53029	13.41	400.519
6	53414	13.51	403.297
6	53826	13.61	406.075
6	54259	13.71	408.852
6	54683	13.81	411.63
6	55113	13.91	414.408
6	55553	14.01	417.186
6	55980	14.11	419.964
6	56410	14.21	422.741
6	56828	14.31	425.519
6	57261	14.41	428.297
6	57694	14.51	431.075
6	58118	14.61	433.852
6	58551	14.71	436.63
6	58978	14.81	439.408
6	59372	14.91	442.186
6	59812	15.01	444.964
6	60239	15.11	447.741
6	60654	15.21	450.519
6	61087	15.31	453.297
6	61517	15.41	456.075
6	61950	15.51	458.853
6	62377	15.61	461.63
6	62798	15.71	464.408
6	63225	15.81	467.186
6	63646	15.91	469.964
6	64080	16.01	472.741
6	64501	16.11	475.519
6	64928	16.21	478.297
6	65361	16.31	481.075
6	65788	16.41	483.853
6	66212	16.51	486.63
6	66642	16.61	489.408
6	67063	16.71	492.186
6	67490	16.81	494.964
6	67923	16.91	497.741
6	68357	17.01	500.519
6	68784	17.11	503.297
6	69211	17.21	506.075
6	69644	17.31	508.853
6	70074	17.41	511.63
6	70498	17.51	514.408
6	70913	17.61	517.186
6	71346	17.71	519.964
6	71773	17.81	522.741
6	72203	17.91	525.519
6	72622	18.01	528.297
6	73049	18.11	531.075
6	73476	18.21	533.853
6	73906	18.31	536.63
6	74333	18.41	539.408
6	74766	18.51	542.186
6	75187	18.61	544.964
6	75614	18.71	547.741
6	76041	18.81	550.519
6	76474	18.91	553.297
6	76896	19.01	556.075
6	77329	19.11	558.853
6	77762	19.21	561.63
6	78192	19.31	564.408
6	78619	19.41	567.186
6	79043	19.51	569.964
6	79473	19.61	572.741
6	79906	19.71	575.519
6	80333	19.81	578.297
6	80763	19.91	581.075
6	81200	20.01	583.853
6	81630	20.11	586.63
6	82060	20.21	589.408
6	82487	20.31	592.186
6	82920	20.41	594.964
6	83353	20.51	597.742
6	83777	20.61	600.519
6	84207	20.71	603.297
6	84640	20.81	606.075
6	85073	20.91	608.853
6	85510	21.01	611.63
6	85922	21.11	614.408
6	86352	21.21	617.186
6	86785	21.31	619.964
6	87203	21.41	622.742
6	87615	21.51	625.519
6	88045	21.61	628.297
6	88472	21.71	631.075
6	88905	21.81	633.853
6	89332	21.91	636.63
6	89766	22.01	639.408
6	90187	22.11	642.186
6	90614	22.21	644.964
6	91047	22.31	647.742
6	91474	22.41	650.519
6	91868	22.51	653.297
6	92283	22.61	656.075
6	92716	22.71	658.853
6	93146	22.81	661.63
6	93573	22.91	664.408
6	94010	23.01	667.186
6	94434	23.11	669.964
6	94867	23.21	672.742
6	95294	23.31	675.519
6	95685	23.41	678.297
6	96103	23.51	681.075
6	96530	23.61	683.853
6	96918	23.71	686.63
6	97351	23.81	689.408
6	97784	23.91	692.186
6	98185	24.01	694.964
6	98618	24.11	697.742
6	99039	24.21	700.519
6	99466	24.31	703.297
6	99899	24.41	706.075
6	100326	24.51	708.853
6	100759	24.61	711.63
6	101186	24.71	714.408
6	101616	24.81	717.186
6	102031	24.91	719.964
6	102471	25.01	722.742
6	102886	25.11	725.519
6	103319	25.21	728.297
6	103743	25.31	731.075
6	104170	25.41	733.853
6	104597	25.51	736.631
6	105024	25.61	739.408
6	105457	25.71	742.186
6	105890	25.81	744.964
6	106320	25.91	747.742
6	106760	26.01	750.519
6	107187	26.11	753.297
6	107620	26.21	756.075
6	108053	26.31	758.853
6	108471	26.41	761.631
6	108892	26.51	764.408
6	109325	26.61	767.186
6	109758	26.71	769.964
6	110191	26.81	772.742
6	110621	26.91	775.519
6	111061	27.01	778.297
6	111491	27.11	781.075
6	111918	27.21	783.853
6	112351	27.31	786.631
6	112772	27.41	789.408
6	113199	27.51	792.186
6	113632	27.61	794.964
6	114050	27.71	797.742
6	114477	27.81	800.519
6	114904	27.91	803.297
6	115344	28.01	806.075
6	115777	28.11	808.853
6	116207	28.21	811.631
6	116640	28.31	814.408
6	117073	28.41	817.186
6	117500	28.51	819.964
6	117930	28.61	822.742
6	118363	28.71	825.519
6	118790	28.81	828.297
6	119217	28.91	831.075
6	119645	29.01	833.853
6	120078	29.11	836.631
6	120505	29.21	839.408
6	120923	29.31	842.186
6	121356	29.41	844.964
6	121780	29.51	847.742
6	122207	29.61	850.519
6	122637	29.71	853.297
6	123067	29.81	856.075
6	123500	29.91	858.853
6	123937	30.01	861.631
6	124367	30.11	864.408
6	124794	30.21	867.186
6	125221	30.31	869.964
6	125639	30.41	872.742
6	126072	30.51	875.52
6	126505	30.61	878.297
6	126938	30.71	881.075
6	127368	30.81	883.853
6	127795	30.91	886.631
6	128235	31.01	889.408
6	128656	31.11	892.186
6	129089	31.21	894.964
6	129522	31.31	897.742
6	129952	31.41	900.52
6	130376	31.51	903.297
6	130803	31.61	906.075
6	131233	31.71	908.853
6	131645	31.81	911.631
6	132060	31.91	914.408
6	132500	32.01	917.186
6	132930	32.11	919.964
6	133315	32.21	922.742
6	133742	32.31	925.52
6	134172	32.41	928.297
6	134605	32.51	931.075
6	135038	32.61	933.853
6	135471	32.71	936.631
6	135892	32.81	939.408
6	136322	32.91	942.186
6	136762	33.01	944.964
6	137195	33.11	947.742
6	137622	33.21	950.52
6	138016	33.31	953.297
6	138449	33.41	956.075
6	138882	33.51	958.853
6	139309	33.61	961.631
6	139742	33.71	964.408
6	140169	33.81	967.186
6	140596	33.91	969.964
6	141018	34.01	972.742
6	141442	34.11	975.52
6	141872	34.21	978.297
6	142305	34.31	981.075
6	142738	34.41	983.853
6	143165	34.51	986.631
6	143583	34.61	989.408
6	144016	34.71	992.186
6	144446	34.81	994.964
6	144876	34.91	997.742
6	145316	35.01	1000.52
6	145743	35.11	1003.3
6	146164	35.21	1006.08
6	146585	35.31	1008.85
6	147018	35.41	1011.63
6	147403	35.51	1014.41
6	147827	35.61	1017.19
6	148254	35.71	1019.96
6	148687	35.81	1022.74
6	149114	35.91	1025.52
6	149554	36.01	1028.3
6	149984	36.11	1031.08
6	150408	36.21	1033.85
6	150841	36.31	1036.63
6	151271	36.41	1039.41
6	151701	36.51	1042.19
6	152134	36.61	1044.96
6	152561	36.71	1047.74
6	152985	36.81	1050.52
6	153403	36.91	1053.3
6	153837	37.01	1056.08
6	154258	37.11	1058.85
6	154688	37.21	1061.63
6	155109	37.31	1064.41
6	155539	37.41	1067.19
6	155963	37.51	1069.96
6	156393	37.61	1072.74
6	156826	37.71	1075.52
6	157253	37.81	1078.3
6	157668	37.91	1081.08
6	158102	38.01	1083.85
6	158535	38.11	1086.63
6	158962	38.21	1089.41
6	159395	38.31	1092.19
6	159828	38.41	1094.96
6	160246	38.51	1097.74
6	160679	38.61	1100.52
6	161112	38.71	1103.3
6	161536	38.81	1106.08
6	161960	38.91	1108.85
6	162394	39.01	1111.63
6	162821	39.11	1114.41
6	163254	39.21	1117.19
6	163681	39.31	1119.96
6	164114	39.41	1122.74
6	164547	39.51	1125.52
6	164974	39.61	1128.3
6	165404	39.71	1131.08
6	165831	39.81	1133.85
6	166264	39.91	1136.63
6	166698	40.01	1139.41
6	167131	40.11	1142.19
6	167555	40.21	1144.96
6	167982	40.31	1147.74
6	168406	40.41	1150.52
6	168833	40.51	1153.3
6	169266	40.61	1156.08
6	169693	40.71	1158.85
6	170078	40.81	1161.63
6	170508	40.91	1164.41
6	170942	41.01	1167.19
6	171354	41.11	1169.96
6	171781	41.21	1172.74
6	172211	41.31	1175.52
6	172635	41.41	1178.3
6	173062	41.51	1181.08
6	173492	41.61	1183.85
6	173919	41.71	1186.63
6	174352	41.81	1189.41
6	174785	41.91	1192.19
6	175219	42.01	1194.96
6	175643	42.11	1197.74
6	176064	42.21	1200.52
6	176497	42.31	1203.3
6	176927	42.41	1206.08
6	177360	42.51	1208.85
6	177763	42.61	1211.63
6	178190	42.71	1214.41
6	178623	42.81	1217.19
6	179056	42.91	1219.96
6	179490	43.01	1222.74
6	179923	43.11	1225.52
6	180335	43.21	1228.3
6	180768	43.31	1231.08
6	181195	43.41	1233.85
6	181619	43.51	1236.63
6	182049	43.61	1239.41
6	182482	43.71	1242.19
6	182912	43.81	1244.96
6	183342	43.91	1247.74
6	183782	44.01	1250.52
6	184215	44.11	1253.3
6	184636	44.21	1256.08
6	185069	44.31	1258.85
6	185502	44.41	1261.63
6	185923	44.51	1264.41
6	186350	44.61	1267.19
6	186783	44.71	1269.96
6	187210	44.81	1272.74
6	187622	44.91	1275.52
6	188059	45.01	1278.3
6	188489	45.11	1281.08
6	188919	45.21	1283.85
6	189343	45.31	1286.63
6	189734	45.41	1289.41
6	190122	45.51	1292.19
6	190546	45.61	1294.96
6	190976	45.71	1297.74
6	191403	45.81	1300.52
6	191827	45.91	1303.3
6	192267	46.01	1306.08
6	192700	46.11	1308.85
6	193127	46.21	1311.63
6	193548	46.31	1314.41
6	193975	46.41	1317.19
6	194408	46.51	1319.96
6	194841	46.61	1322.74
6	195274	46.71	1325.52
6	195698	46.81	1328.3
6	196125	46.91	1331.08
6	196523	47.01	1333.85
6	196950	47.11	1336.63
6	197380	47.21	1339.41
6	197813	47.31	1342.19
6	198246	47.41	1344.96
6	198670	47.51	1347.74
6	199100	47.61	1350.52
6	199524	47.71	1353.3
6	199957	47.81	1356.08
6	200384	47.91	1358.85
6	200815	48.01	1361.63
6	201206	48.11	1364.41
6	201639	48.21	1367.19
6	202066	48.31	1369.96
6	202499	48.41	1372.74
6	202923	48.51	1375.52
6	203353	48.61	1378.3
6	203741	48.71	1381.08
6	204168	48.81	1383.85
6	204586	48.91	1386.63
6	205026	49.01	1389.41
6	205453	49.11	1392.19
6	205886	49.21	1394.96
6	206319	49.31	1397.74
6	206752	49.41	1400.52
6	207179	49.51	1403.3
6	207612	49.61	1406.08
6	208045	49.71	1408.85
6	208472	49.81	1411.63
6	208899	49.91	1414.41
6	209331	50.01	1417.19
6	1708616	50.11	1419.96
6	3294397	50.21	1422.74
6	4868593	50.31	1425.52
6	6464194	50.41	1428.3
6	8037175	50.51	1431.08
6	9609960	50.61	1433.85
6	11209489	50.71	1436.63
6	12796174	50.81	1439.41
6	14367476	50.91	1442.19
6	15950334	51.01	1444.96
6	17526660	51.11	1447.74
6	19109133	51.21	1450.52
6	20687632	51.31	1453.3
6	22262992	51.41	1456.08
6	23853416	51.51	1458.85
6	25421974	51.61	1461.63
6	27008205	51.71	1464.41
6	28593815	51.81	1467.19
6	30185927	51.91	1469.96
6	31747822	52.01	1472.74
6	33342705	52.11	1475.52
6	34916500	52.21	1478.3
6	36509655	52.31	1481.08
6	38071991	52.41	1483.85
6	39654064	52.51	1486.63
6	41242034	52.61	1489.41
6	42816653	52.71	1492.19
6	44404235	52.81	1494.96
6	45998561	52.91	1497.74
6	47581154	53.01	1500.52
6	49156672	53.11	1503.3
6	50743255	53.21	1506.08
6	52323941	53.31	1508.85
6	53908663	53.41	1511.63
6	55490724	53.51	1514.41
6	57062583	53.61	1517.19
6	58656544	53.71	1519.96
6	60227988	53.81	1522.74
6	61806174	53.91	1525.52
6	63388629	54.01	1528.3
6	64976577	54.11	1531.08
6	66549158	54.21	1533.85
6	68136542	54.31	1536.63
6	69708486	54.41	1539.41
6	71295266	54.51	1542.19
6	72886574	54.61	1544.96
6	74449922	54.71	1547.74
6	76039471	54.81	1550.52
6	77635833	54.91	1553.3
6	79220706	55.01	1556.08
6	80797648	55.11	1558.85
6	82383709	55.21	1561.63
6	83955331	55.31	1564.41
6	85542687	55.41	1567.19
6	87115577	55.51	1569.96
6	88695832	55.61	1572.74
6	90278226	55.71	1575.52
6	91849959	55.81	1578.3
6	93439143	55.91	1581.08
6	95015312	56.01	1583.85
6	96604083	56.11	1586.63
6	98186031	56.21	1589.41
6	99764003	56.31	1592.19
6	101342477	56.41	1594.96
6	102929913	56.51	1597.74
6	104503797	56.61	1600.52
6	106089405	56.71	1603.3
6	107664338	56.81	1606.08
6	109253527	56.91	1608.85
6	110837722	57.01	1611.63
6	112408645	57.11	1614.41
6	113982650	57.21	1617.19
6	115586830	57.31	1619.96
6	117158093	57.41	1622.74
6	118725015	57.51	1625.52
6	120315880	57.61	1628.3
6	121913397	57.71	1631.08
6	123486323	57.81	1633.85
6	125073637	57.91	1636.63
6	126668795	58.01	1639.41
6	128226690	58.11	1642.19
6	129812670	58.21	1644.96
6	131402322	58.31	1647.74
6	132985575	58.41	1650.52
6	134566265	58.51	1653.3
6	136130026	58.61	1656.08
6	137725898	58.71	1658.85
6	139308879	58.81	1661.63
6	140878360	58.91	1664.41
6	142469184	59.01	1667.19
6	144052503	59.11	1669.96
6	145630648	59.21	1672.74
6	147217297	59.31	1675.52
6	148788257	59.41	1678.3
6	150386959	59.51	1681.08
6	151968344	59.61	1683.85
6	153547118	59.71	1686.63
6	155138514	59.81	1689.41
6	156719047	59.91	1692.19
6	158279225	60.01	1694.96
6	159874395	60.11	1697.74
6	161455331	60.21	1700.5
6	163034981	60.31	1703.23
6	164618267	60.41	1705.92
6	166198246	60.51	1708.57
6	167798742	60.61	1711.17
6	169388726	60.71	1713.71
6	170957698	60.81	1716.19
6	172540354	60.91	1718.61
6	174139299	61.01	1720.96
6	175706992	61.11	1723.24
6	177303973	61.21	1725.45
6	178878661	61.31	1727.58
6	180466099	61.41	1729.64
6	182049558	61.51	1731.63
6	183621373	61.61	1733.54
6	185207507	61.71	1735.38
6	186792475	61.81	1737.14
6	188352765	61.91	1738.82
6	189936812	62.01	1740.42
6	191542975	62.11	1741.94
6	193097798	62.21	1743.38
6	194677758	62.31	1744.75
6	196271675	62.41	1746.04
6	197848695	62.51	1747.24
6	199438116	62.61	1748.37
6	201007446	62.71	1749.42
6	202595087	62.81	1750.39
6	204174319	62.91	1751.27
6	205752535	63.01	1752.08
6	207345697	63.11	1752.81
6	208923845	63.21	1753.46
6	210511459	63.31	1754.03
6	212086010	63.41	1754.52
6	213664738	63.51	1754.93
6	215255448	63.61	1755.26
6	216837072	63.71	1755.51
6	218416157	63.81	1755.68
6	220000458	63.91	1755.77
6	221578281	64.01	1755.78
6	223143530	64.11	1755.78
6	224721040	64.21	1755.78
6	226316116	64.31	1755.78
6	227891973	64.41	1755.78
6	229475576	64.51	1755.78
6	231060874	64.61	1755.78
6	232630742	64.71	1755.78
6	234228106	64.81	1755.78
6	235799637	64.91	1755.78
6	237384201	65.01	1755.78
6	238959335	65.11	1755.78
6	240539354	65.21	1755.78
6	242127286	65.31	1755.78
6	243702382	65.41	1755.78
6	245297750	65.51	1755.78
6	246868285	65.61	1755.78
6	248448260	65.71	1755.78
6	250023530	65.81	1755.78
6	251603784	65.91	1755.78
6	253191291	66.01	1755.78
6	254764935	66.11	1755.78
6	256364420	66.21	1755.78
6	257920687	66.31	1755.78
6	259510946	66.41	1755.78
6	261092679	66.51	1755.78
6	262676325	66.61	1755.78
6	264262430	66.71	1755.78
6	265840156	66.81	1755.78
6	267424674	66.91	1755.78
6	268992872	67.01	1755.78
6	270591205	67.11	1755.78
6	272168029	67.21	1755.78
6	273750804	67.31	1755.78
6	275333578	67.41	1755.78
6	276905015	67.51	1755.78
6	278496795	67.61	1755.78
6	280081027	67.71	1755.78
6	281660877	67.81	1755.78
6	283260436	67.91	1755.78
6	284833488	68.01	1755.78
6	286408649	68.11	1755.78
6	287988768	68.21	1755.78
6	289572342	68.31	1755.78
6	291155028	68.41	1755.78
6	292732082	68.51	1755.78
6	294315612	68.61	1755.78
6	295892407	68.71	1755.78
6	297469510	68.81	1755.78
6	299045251	68.91	1755.78
6	300642284	69.01	1755.78
6	302230655	69.11	1755.78
6	303798081	69.21	1755.78
6	305375901	69.31	1755.78
6	306965388	69.41	1755.78
6	308540457	69.51	1755.78
6	310124600	69.61	1755.78
6	311711905	69.71	1755.78
6	313287991	69.81	1755.78
6	314862627	69.91	1755.78
5	232	1.11	27.78
5	645	1.21	27.7799
5	1067	1.31	27.7798
5	1494	1.41	27.7797
5	1929	1.51	27.7796
5	2356	1.61	27.7795
5	2789	1.71	27.7794
5	3218	1.81	27.7792
5	3645	1.91	27.7791
5	4079	2.01	27.7789
5	4506	2.11	27.7788
5	4933	2.21	27.7787
5	5351	2.31	27.7785
5	5784	2.41	27.7784
5	6217	2.51	27.7783
5	6644	2.61	27.7782
5	7065	2.71	27.7782
5	7492	2.81	27.7781
5	7922	2.91	27.778
5	8362	3.01	27.7779
5	8795	3.11	27.7779
5	9210	3.21	27.7779
5	9643	3.31	27.7778
5	10073	3.41	27.7778
5	10503	3.51	27.7778
5	10936	3.61	27.7777
5	11351	3.71	27.7777
5	11784	3.81	27.7777
5	12217	3.91	27.7777
5	12648	4.01	27.7777
5	13081	4.11	27.7777
5	13508	4.21	27.7777
5	13941	4.31	27.7777
5	14374	4.41	27.7777
5	14801	4.51	27.7777
5	15228	4.61	27.7777
5	15661	4.71	27.7777
5	16088	4.81	27.7777
5	16515	4.91	27.7777
5	16949	5.01	27.7777
5	17379	5.11	27.7777
5	17809	5.21	27.7778
5	18242	5.31	27.7778
5	18672	5.41	27.7778
5	19102	5.51	27.7778
5	19535	5.61	27.7778
5	19968	5.71	27.7778
5	20389	5.81	27.7778
5	20822	5.91	27.7778
5	21262	6.01	27.7778
5	21689	6.11	27.7778
5	22116	6.21	27.7778
5	22537	6.31	27.7778
5	22958	6.41	27.7778
5	23391	6.51	27.7778
5	23824	6.61	27.7778
5	24257	6.71	27.7778
5	24690	6.81	27.7778
5	25123	6.91	27.7778
5	25548	7.01	27.7778
5	25972	7.11	27.7778
5	26399	7.21	27.7778
5	26832	7.31	27.7778
5	27265	7.41	27.7778
5	27692	7.51	27.7778
5	28125	7.61	27.7778
5	28558	7.71	27.7778
5	28988	7.81	27.7778
5	29421	7.91	27.7778
5	29855	8.01	27.7778
5	30279	8.11	27.7778
5	30709	8.21	27.7778
5	31136	8.31	27.7778
5	31569	8.41	27.7778
5	31999	8.51	27.7778
5	32432	8.61	27.7778
5	32853	8.71	27.7778
5	33244	8.81	27.7778
5	33677	8.91	27.7778
5	34111	9.01	27.7778
5	34535	9.11	27.7778
5	34968	9.21	27.7778
5	35398	9.31	27.7778
5	35831	9.41	27.7778
5	36264	9.51	27.7778
5	36697	9.61	27.7778
5	37130	9.71	27.7778
5	37557	9.81	27.7778
5	37987	9.91	27.7778
5	38421	10.01	27.7778
5	38851	10.11	27.7778
5	39284	10.21	27.7778
5	39717	10.31	27.7778
5	40147	10.41	27.7778
5	40580	10.51	27.7778
5	41013	10.61	27.7778
5	41428	10.71	27.7778
5	41861	10.81	27.7778
5	42288	10.91	27.7778
5	42728	11.01	27.7778
5	43155	11.11	27.7778
5	43585	11.21	27.7778
5	44015	11.31	27.7778
5	44445	11.41	27.7778
5	44875	11.51	27.7778
5	45308	11.61	27.7778
5	45735	11.71	27.7778
5	46168	11.81	27.7778
5	46592	11.91	27.7778
5	47032	12.01	27.7778
5	47465	12.11	27.7778
5	47889	12.21	27.7778
5	48322	12.31	27.7778
5	48755	12.41	27.7778
5	49182	12.51	27.7778
5	49615	12.61	27.7778
5	50048	12.71	27.7778
5	50436	12.81	27.7778
5	50869	12.91	27.7778
5	51303	13.01	27.7778
5	51730	13.11	27.7778
5	52163	13.21	27.7778
5	52596	13.31	27.7778
5	53029	13.41	27.7778
5	53414	13.51	27.7778
5	53826	13.61	27.7778
5	54259	13.71	27.7778
5	54683	13.81	27.7778
5	55113	13.91	27.7778
5	55553	14.01	27.7778
5	55980	14.11	27.7778
5	56410	14.21	27.7778
5	56828	14.31	27.7778
5	57261	14.41	27.7778
5	57694	14.51	27.7778
5	58118	14.61	27.7778
5	58551	14.71	27.7778
5	58978	14.81	27.7778
5	59372	14.91	27.7778
5	59812	15.01	27.7778
5	60239	15.11	27.7778
5	60654	15.21	27.7778
5	61087	15.31	27.7778
5	61517	15.41	27.7778
5	61950	15.51	27.7778
5	62377	15.61	27.7778
5	62798	15.71	27.7778
5	63225	15.81	27.7778
5	63646	15.91	27.7778
5	64080	16.01	27.7778
5	64501	16.11	27.7778
5	64928	16.21	27.7778
5	65361	16.31	27.7778
5	65788	16.41	27.7778
5	66212	16.51	27.7778
5	66642	16.61	27.7778
5	67063	16.71	27.7778
5	67490	16.81	27.7778
5	67923	16.91	27.7778
5	68357	17.01	27.7778
5	68784	17.11	27.7778
5	69211	17.21	27.7778
5	69644	17.31	27.7778
5	70074	17.41	27.7778
5	70498	17.51	27.7778
5	70913	17.61	27.7778
5	71346	17.71	27.7778
5	71773	17.81	27.7778
5	72203	17.91	27.7778
5	72622	18.01	27.7778
5	73049	18.11	27.7778
5	73476	18.21	27.7778
5	73906	18.31	27.7778
5	74333	18.41	27.7778
5	74766	18.51	27.7778
5	75187	18.61	27.7778
5	75614	18.71	27.7778
5	76041	18.81	27.7778
5	76474	18.91	27.7778
5	76896	19.01	27.7778
5	77329	19.11	27.7778
5	77762	19.21	27.7778
5	78192	19.31	27.7778
5	78619	19.41	27.7778
5	79043	19.51	27.7778
5	79473	19.61	27.7778
5	79906	19.71	27.7778
5	80333	19.81	27.7778
5	80763	19.91	27.7778
5	81200	20.01	27.7778
5	81630	20.11	27.7778
5	82060	20.21	27.7778
5	82487	20.31	27.7778
5	82920	20.41	27.7778
5	83353	20.51	27.7778
5	83777	20.61	27.7778
5	84207	20.71	27.7778
5	84640	20.81	27.7778
5	85073	20.91	27.7778
5	85510	21.01	27.7778
5	85922	21.11	27.7778
5	86352	21.21	27.7778
5	86785	21.31	27.7778
5	87203	21.41	27.7778
5	87615	21.51	27.7778
5	88045	21.61	27.7778
5	88472	21.71	27.7778
5	88905	21.81	27.7778
5	89332	21.91	27.7778
5	89766	22.01	27.7778
5	90187	22.11	27.7778
5	90614	22.21	27.7778
5	91047	22.31	27.7778
5	91474	22.41	27.7778
5	91868	22.51	27.7778
5	92283	22.61	27.7778
5	92716	22.71	27.7778
5	93146	22.81	27.7778
5	93573	22.91	27.7778
5	94010	23.01	27.7778
5	94434	23.11	27.7778
5	94867	23.21	27.7778
5	95294	23.31	27.7778
5	95685	23.41	27.7778
[...]
87	83930928	55.308413796262	6
87	90299088	55.711598049609	6
87	94963739	56.006271934335	6
87	96552517	56.106724650388	6
87	98165985	56.208630135161	6
87	101341394	56.409858637814	6
87	107664371	56.810115631349	6
87	113969116	57.208586863225	6
87	115569188	57.308680529041	6
87	117141829	57.409389380662	6
87	120279060	57.606806824978	6
87	123437305	57.806608022671	6
87	139329443	58.811357937039	6
87	140877266	58.909646165709	6
87	144012770	59.107775583912	6
87	147163725	59.307108470246	6
87	148738453	59.406594710539	6
87	150350183	59.507901320183	6
87	151934033	59.607804861069	6
87	155084756	59.806595442441	6
87	163053161	60.310870461659	6
87	166197438	60.509165788795	6
87	167864122	60.613189430482	6
87	175685462	61.10824502635	6
87	177233192	61.205806741849	6
87	178846953	61.308492166494	6
87	181985151	61.506299790555	6
87	186757091	61.807876112316	6
87	191470930	62.10581297332	6
87	194635294	62.307211369745	6
87	196206646	62.405779564679	6
87	197838896	62.509483195128	6
87	199456220	62.610701790411	6
87	201006452	62.70964445014	6
87	205711269	63.006836133457	6
87	209025646	63.215880047538	6
87	215310159	63.614021770831	6
87	216768853	63.705786243311	6
87	218377759	63.807764745314	6
87	223199526	64.112968379756	6
87	226256441	64.306401862823	6
87	227889465	64.40950722922	6
87	231046626	64.609508915479	6
87	232583602	64.706425714366	6
87	234187092	64.807651279072	6
87	250057211	65.81169205326	6
87	253208058	66.011574178294	6
87	259622243	66.415366049479	6
87	261039201	66.506876770757	6
87	269082995	67.014924128783	6
87	270590095	67.109745053112	6
87	272130222	67.207267190417	6
87	273678298	67.305810131068	6
87	276861830	67.50669013618	6
87	283178365	67.905816850247	6
87	284780541	68.007098166932	6
87	286373708	68.10721308608	6
87	287946216	68.206703450525	6
87	289593566	68.311149315575	6
87	297452557	68.809230041868	6
87	299000141	68.906880547508	6
87	300602978	69.007978719919	6
87	305461069	69.314136967585	6
87	310103651	69.60872089711	6
87	311694047	69.709002760319	6
87	314826334	69.907810231466	6
75	721	1.269734700483	6
75	1136	1.369729260871	6
75	1571	1.46972382126	6
75	2004	1.569731381657	6
75	2431	1.669725942067	6
75	2865	1.769733502501	6
75	3293	1.869728062973	6
75	3720	1.969722623498	6
75	4154	2.069730184092	6
75	5426	2.369730726171	6
75	5859	2.469725287233	6
75	6286	2.569732848465	6
75	6719	2.669727409885	6
75	7140	2.769725971519	6
75	7567	2.869733533387	6
75	7997	2.969728095511	6
75	8437	3.069722657913	6
75	8864	3.169730220616	6
75	9285	3.26972478364	6
75	9715	3.369732347008	6
75	10148	3.469726910741	6
75	10578	3.56973447486	6
75	11011	3.669729039386	6
75	11426	3.76972360434	6
75	11859	3.869731169742	6
75	12292	3.969725735611	6
75	12723	4.069733301969	6
75	13156	4.169727868833	6
75	13583	4.269722436224	6
75	14016	4.369730004158	6
75	14449	4.469724572656	6
75	15303	4.669734472912	6
75	15736	4.769729043207	6
75	16163	4.869723614133	6
75	16590	4.969731185709	6
75	17024	5.06972575795	6
75	17454	5.169733330873	6
75	17884	5.269727904492	6
75	18317	5.369722478824	6
75	18747	5.469730053882	6
75	19177	5.569724629681	6
75	19610	5.669732206234	6
75	20040	5.769726783557	6
75	20464	5.869734361661	6
75	20897	5.969728940561	6
75	21337	6.069723520267	6
75	21764	6.169731100794	6
75	22191	6.269729441892	6
75	22606	6.369728024092	6
75	23033	6.469722607147	6
75	23466	6.569730191068	6
75	23899	6.669724775866	6
75	24332	6.769732361547	6
75	24765	6.869726948125	6
75	25623	7.069732971803	6
75	26047	7.169727561125	6
75	26474	7.26972215138	6
75	26907	7.369729742576	6
75	27340	7.469724334721	6
75	27767	7.569731927822	6
75	28200	7.669726521889	6
75	28633	7.769734116925	6
75	29063	7.869728712939	6
75	29496	7.969723309938	6
75	30354	8.169725506914	6
75	30784	8.269733106904	6
75	31211	8.369731460638	6
75	31644	8.469726062648	6
75	32074	8.569733665677	6
75	32507	8.66972826973	6
75	32928	8.769722874809	6
75	33319	8.869734328067	6
75	33746	8.969728935214	6
75	34186	9.069723543399	6
75	34610	9.169731152625	6
75	35040	9.269725762898	6
75	35473	9.369733374219	6
75	35906	9.469727986592	6
75	36339	9.569722600019	6
75	36772	9.669730214502	6
75	37632	9.869723284732	6
75	38062	9.969730902396	6
75	38496	10.069725521125	6
75	38926	10.169733140918	6
75	39359	10.269727761776	6
75	39792	10.3697223837	6
75	40222	10.46973000669	6
75	40655	10.56972463075	6
75	41088	10.669732255879	6
75	41503	10.769734728821	6
75	41936	10.869729356085	6
75	42363	10.969723984417	6
75	42803	11.069731613817	6
75	43230	11.169726244284	6
75	43660	11.269733875818	6
75	44520	11.469723142082	6
75	44950	11.569730776811	6
75	45383	11.669725412601	6
75	45810	11.769733049454	6
75	46243	11.869727687364	6
75	46667	11.969722326332	6
75	47107	12.069729966356	6
75	47540	12.169724607434	6
75	47964	12.269732249563	6
75	48397	12.369726892743	6
75	48830	12.46973453697	6
75	49257	12.569729182242	6
75	49690	12.669723828556	6
75	50120	12.76973147591	6
75	50511	12.869729959831	6
75	50938	12.969724609257	6
75	51375	13.069732259714	6
75	51805	13.169726911199	6
75	52238	13.269734563709	6
75	52671	13.36972921724	6
75	53098	13.469723871789	6
75	53901	13.669733905574	6
75	54328	13.769728563156	6
75	54758	13.869723221742	6
75	55188	13.969730881328	6
75	55628	14.069725541909	6
75	56055	14.169733203482	6
75	56903	14.36972635458	6
75	57336	14.469734019108	6
75	57769	14.569728684611	6
75	58193	14.669723351086	6
75	58626	14.769731018529	6
75	59053	14.869725686934	6
75	59447	14.969724248909	6
75	59887	15.069731919228	6
75	60314	15.169726590496	6
75	60729	15.26973426271	6
75	61162	15.369728935864	6
75	61592	15.469723609954	6
75	62025	15.569731284975	6
75	62446	15.66972596092	6
75	62873	15.769733637788	6
75	63297	15.869728315573	6
75	63721	15.969722994269	6
75	64155	16.069730673871	6
75	64573	16.169725354376	6
75	65003	16.269733035777	6
75	65430	16.36972771807	6
75	65863	16.46972240125	6
75	66287	16.569733971516	6
75	66711	16.669728656455	6
75	67138	16.769723342265	6
75	67565	16.86973102894	6
75	67995	16.969725716478	6
75	68426	17.069733404871	6
75	68859	17.169728094116	6
75	69286	17.269722784207	6
75	69719	17.369730475137	6
75	70149	17.469725166903	6
75	70567	17.569732859498	6
75	70988	17.66973143746	6
75	71415	17.769726131699	6
75	71848	17.869733826753	6
75	72697	18.069727036748	6
75	73121	18.169734734213	6
75	73551	18.26972943247	6
75	73981	18.369724131515	6
75	74408	18.469731831342	6
75	74835	18.569726531946	6
75	75262	18.669725233322	6
75	75683	18.769732935464	6
75	76116	18.869727638366	6
75	76549	18.969722342025	6
75	76971	19.069733929028	6
75	77404	19.169728634181	6
75	77837	19.269723340074	6
75	78694	19.46972575406	6
75	79118	19.56973346214	6
75	79548	19.669728170938	6
75	80408	19.869730590671	6
75	80838	19.969725301593	6
75	81275	20.069733013214	6
75	81705	20.169727725528	6
75	82135	20.269722438529	6
75	82562	20.369730152211	6
75	82995	20.469724866571	6
75	83428	20.569732581602	6
75	83849	20.669727297298	6
75	84282	20.769735013657	6
75	84715	20.869729730672	6
75	85148	20.969724448338	6
75	85579	21.069732166649	6
75	85994	21.169730885602	6
75	86427	21.269725605191	6
75	86860	21.36973332541	6
75	87272	21.469731750015	6
75	87690	21.56972647148	6
75	88120	21.669734193561	6
75	88547	21.769728916252	6
75	88980	21.86972363955	6
75	89401	21.969731363448	6
75	89841	22.069726087942	6
75	90262	22.169724691992	6
75	90689	22.269732417663	6
75	91122	22.369727143915	6
75	91549	22.469734870744	6
75	91937	22.569733476706	6
75	92358	22.669728204675	6
75	92791	22.769722933205	6
75	93221	22.869730662293	6
75	93648	22.969725391933	6
75	94085	23.069733122122	6
75	94509	23.169727852854	6
75	94942	23.269722584125	6
75	95369	23.36973031593	6
75	95760	23.46972892597	6
75	96178	23.569727357157	6
75	96605	23.669735090538	6
75	96993	23.769733701871	6
75	97426	23.869728436279	6
75	97859	23.969723171195	6
75	98260	24.069734906613	6
75	98693	24.169729642529	6
75	99114	24.269724378939	6
75	99541	24.36973211584	6
75	100401	24.569725400926	6
75	100828	24.669733139268	6
75	101261	24.769727878081	6
75	102106	24.969734166645	6
75	102540	25.06972890685	6
75	102961	25.169727647511	6
75	103394	25.269722388624	6
75	103812	25.369730130183	6
75	104239	25.469724872187	6
75	104672	25.569732614629	6
75	105099	25.669731357508	6
75	105532	25.769726100816	6
75	105965	25.869733844552	6
75	106395	25.969728588713	6
75	106835	26.069723333292	6
75	107262	26.169731078287	6
75	107695	26.269725823694	6
75	108125	26.369733569509	6
75	108540	26.469728315728	6
75	108967	26.569723062348	6
75	109400	26.669730809362	6
75	109833	26.769725556771	6
75	110266	26.869733304568	6
75	110696	26.969728052753	6
75	111133	27.069722801317	6
75	111560	27.16973055026	6
75	111993	27.269725299579	6
75	112426	27.369733049268	6
75	112841	27.469731799326	6
75	113274	27.569726549746	6
75	114119	27.769723733958	6
75	114552	27.869731485451	6
75	114979	27.969726237296	6
75	115419	28.069733989487	6
75	115852	28.169728742021	6
75	116282	28.269723494895	6
75	116715	28.369731248107	6
75	117148	28.469726001654	6
75	117575	28.569724629571	6
75	118005	28.669732383774	6
75	118438	28.7697271383	6
75	118865	28.869734893148	6
75	119289	28.969729648316	6
75	119720	29.069724403798	6
75	120153	29.169732159591	6
75	120574	29.269726915692	6
75	120998	29.369734672099	6
75	121431	29.469729428809	6
75	121855	29.56972418582	6
75	122279	29.669731943127	6
75	122712	29.769726700728	6
75	123142	29.869734458619	6
75	123575	29.969729216797	6
75	124012	30.069723975262	6
75	124442	30.16973173401	6
75	124869	30.269726493035	6
75	125296	30.369734252338	6
75	125714	30.469729011915	6
75	126147	30.569723771763	6
75	126580	30.66973153188	6
75	127013	30.769726292262	6
75	127443	30.869734052909	6
75	127870	30.969728813815	6
75	128310	31.069723574978	6
75	128731	31.169722209191	6
75	129164	31.269729970862	6
75	129597	31.369724732783	6
75	130027	31.469732494952	6
75	130451	31.569727257366	6
75	130878	31.669735020022	6
75	131299	31.769729782918	6
75	131720	31.869724546051	6
75	132135	31.969732309416	6
75	132575	32.069727073017	6
75	133002	32.169734836849	6
75	133390	32.269733474893	6
75	133817	32.369728239178	6
75	134247	32.469723003687	6
75	134680	32.569730768416	6
75	135113	32.669725533366	6
75	135546	32.769733298531	6
75	135967	32.869732063909	6
75	136397	32.9697268295	6
75	136837	33.069734595301	6
75	137270	33.16972936131	6
75	137697	33.269724127524	6
75	138091	33.369722765925	6
75	138524	33.469730532543	6
75	138957	33.569725299362	6
75	139384	33.669723748543	6
75	139817	33.769731515753	6
75	140238	33.869726283155	6
75	140665	33.969734050749	6
75	141093	34.069728818533	6
75	141517	34.169727458237	6
75	141947	34.269722226393	6
75	142380	34.36972999473	6
75	142813	34.469724763249	6
75	143240	34.569732531949	6
75	143658	34.669730982066	6
75	144091	34.769725751118	6
75	144521	34.869733520343	6
75	144951	34.96972828974	6
75	145385	35.069723059306	6
75	145818	35.169730829041	6
75	146239	35.269725598942	6
75	146660	35.369733369007	6
75	147093	35.469728139236	6
75	147478	35.569730716014	6
75	147899	35.669725486562	6
75	148329	35.769733257268	6
75	148762	35.86972802813	6
75	149189	35.969722799147	6
75	149629	36.069730570317	6
75	150483	36.26972391823	6
75	150916	36.369731689849	6
75	151346	36.469726461613	6
75	151776	36.569734233523	6
75	152209	36.669729005576	6
75	152636	36.769723777772	6
75	153060	36.869731550107	6
75	153912	37.069724900182	6
75	154757	37.269727445808	6
75	155184	37.369722218822	6
75	155614	37.469729991966	6
75	156038	37.569724765239	6
75	156468	37.66973253864	6
75	156895	37.76972731217	6
75	157322	37.869735085825	6
75	157737	37.969729859604	6
75	158177	38.069724633506	6
75	158610	38.169732407531	6
75	159037	38.269727181671	6
75	159470	38.369734955934	6
75	159903	38.469729730316	6
75	160321	38.569724504814	6
75	160754	38.669732279425	6
75	161187	38.769727054151	6
75	162035	38.969729603942	6
75	162896	39.169722958881	6
75	163329	39.269730734158	6
75	163756	39.369725509541	6
75	164189	39.46973328503	6
75	164622	39.569728060623	6
75	165049	39.66972283632	6
75	165479	39.769730612118	6
75	165906	39.869729388018	6
75	166339	39.969724164017	6
75	166773	40.069731940114	6
75	167206	40.169726716309	6
75	167630	40.2697344926	6
75	168057	40.369729268987	6
75	168475	40.469724045467	6
75	168908	40.569731822042	6
75	169341	40.669726598707	6
75	169768	40.769734375464	6
75	170153	40.869733023382	6
75	170583	40.969727800318	6
75	171017	41.069722577343	6
75	171423	41.169730354455	6
75	171856	41.269725131653	6
75	172286	41.369732908937	6
75	172710	41.469727686305	6
75	173137	41.569722463756	6
75	173567	41.66973024129	6
75	173994	41.769725018905	6
75	174427	41.869732796601	6
75	174854	41.969727574376	6
75	175718	42.169730130164	6
75	176139	42.269724908176	6
75	176572	42.369732686263	6
75	177002	42.469727464424	6
75	177429	42.569722242659	6
75	177838	42.669733891093	6
75	178265	42.769728669475	6
75	178698	42.86972344793	6
75	179565	43.069729809413	6
75	179998	43.169724588079	6
75	180410	43.269732366814	6
75	180843	43.369727145617	6
75	181264	43.469734924487	6
75	182124	43.669724482423	6
75	182557	43.769732261491	6
75	182987	43.869727040623	6
75	183417	43.969734819819	6
75	183857	44.069729599077	6
75	184290	44.169724378397	6
75	184711	44.269732157778	6
75	185144	44.36972693722	6
75	185577	44.469734716722	6
75	185998	44.569733172093	6
75	186425	44.669727951714	6
75	186858	44.769722731393	6
75	187282	44.869730511128	6
75	187697	44.969725290921	6
75	188134	45.069733070771	6
75	188564	45.169727850674	6
75	188994	45.269722630633	6
75	189418	45.369730410646	6
75	189809	45.469728995301	6
75	190618	45.669726164383	6
75	191051	45.769733944605	6
75	191478	45.869728724879	6
75	191902	45.969723505204	6
75	192342	46.069731285578	6
75	192775	46.169726066002	6
75	193196	46.269733846476	6
75	193623	46.369728626997	6
75	194050	46.469723407566	6
75	194483	46.569731188182	6
75	194916	46.669725968844	6
75	195349	46.769733749552	6
75	195767	46.869728530305	6
75	196200	46.969723311103	6
75	196598	47.069735091947	6
75	197025	47.169729872835	6
75	197455	47.269724653765	6
75	197888	47.369732434739	6
75	198321	47.469727215756	6
75	198745	47.569734996814	6
75	199172	47.669729777914	6
75	199599	47.769724559055	6
75	200032	47.869732340237	6
75	200459	47.969727121458	6
75	200890	48.06973490272	6
75	201281	48.169733488396	6
75	201714	48.269728269735	6
75	202141	48.369723051112	6
75	202568	48.469730832528	6
75	202995	48.569725613981	6
75	203428	48.66973339547	6
75	203816	48.769731981334	6
75	204234	48.869730632543	6
75	204661	48.969725414141	6
75	205101	49.069733195774	6
75	205528	49.169727977442	6
75	205961	49.269722759145	6
75	206394	49.369730540883	6
75	206827	49.469725322654	6
75	207254	49.569733104458	6
75	207687	49.669727886294	6
75	208120	49.769722668163	6
75	208547	49.869730450064	6
75	2768750	50.176456414059	6
75	15384680	50.974252862287	6
75	20064923	51.271259756127	6
75	21800138	51.37940528534	6
75	26499069	51.676785424481	6
75	28016301	51.773085252837	6
75	32807868	52.076250445771	6
75	45457746	52.876198175522	6
75	48571060	53.072902408307	6
75	62816622	53.973188937119	6
75	72325622	54.574447635741	6
75	73940856	54.676878472641	6
75	75470981	54.773179177052	6
75	83317615	55.26997288981	6
75	91218670	55.769781273786	6
75	92899251	55.875249148241	6
75	100731021	56.370926771336	6
75	107017353	56.770186041781	6
75	114975938	57.272106819754	6
75	122845211	57.769723645733	6
75	135532173	58.571232665009	6
75	138818016	58.778570363572	6
75	149807388	59.473070699767	6
75	156160823	59.874629885623	6
75	160897446	60.174650999698	6
75	178288370	61.272521894356	6
75	179833284	61.370847848745	6
75	181459120	61.473284551737	6
75	200424768	62.672186811278	6
75	206841527	63.077716724332	6
75	231988529	64.669780332321	6
75	238438111	65.076365980611	6
75	241489977	65.269920266704	6
75	243181230	65.376410935224	6
75	249401671	65.770709087925	6
75	254229020	66.074936327954	6
75	260596126	66.478267980505	6
75	273140385	67.271044607435	6
75	290565062	68.372902072059	6
75	309505732	69.571157940937	6
75	311079475	69.670535322269	6
112	3911	2	0
112	8188	3	0
112	12474	4	0
112	16738	5	0
112	21088	6	0
112	25380	7	0
112	29681	8	0
112	33937	9	0
112	38247	10	0
112	42554	11	0
112	46858	12	0
112	51129	13	0
112	55379	14	0
112	59638	15	0
112	63871	16	0
112	68146	17	0
112	72448	18	0
112	76728	19	0
112	80989	20	0
112	85336	21	0
112	89592	22	0
112	93836	23	0
112	98050	24	0
112	102297	25	0
112	106546	26	0
112	110887	27	0
112	115170	28	0
112	119474	29	0
112	123766	30	0
112	128061	31	0
112	132326	32	0
112	136548	33	0
112	140804	34	0
112	145102	35	0
112	149380	36	0
112	153663	37	0
112	157928	38	0
112	162223	39	0
112	166530	40	0
112	170728	41	0
112	175045	42	0
112	179316	43	0
112	183568	44	0
112	187885	45	0
112	192093	46	0
112	196391	47	0
112	200607	48	0
112	204812	49	0
112	209157	50	0
112	15798631	51	0
112	31611889	52	0
112	47426563	53	0
112	63241332	54	0
112	79058334	55	0
112	94871343	56	0
112	110684764	57	0
112	126516120	58	0
112	142320921	59	0
112	158139325	60	0
112	173972448	61	0
112	189787068	62	0
112	205606220	63	0
112	221421481	64	0
112	237226841	65	0
112	253044984	66	0
112	268839165	67	0
112	284679395	68	0
112	300479121	69	0
112	316303585	70	0
111	3911	2	0.029273
111	8188	3	0.033242
111	12474	4	0.033738
111	16738	5	0.033728577077
111	21088	6	0.034739422923
111	25380	7	0.034234
111	29681	8	0.03473
111	33937	9	0.03415384716
111	38247	10	0.033738
111	42554	11	0.03473
111	46858	12	0.034234
111	51129	13	0.034636835542
111	55379	14	0.033450000001
111	59638	15	0.032746
111	63871	16	0.034715727325
111	68146	17	0.033748274071
111	72448	18	0.033741998604
111	76728	19	0.033738
111	80989	20	0.034726406219
111	85336	21	0.034733593781
111	89592	22	0.03473
111	93836	23	0.034676
111	98050	24	0.033538999999
111	102297	25	0.033450000001
111	106546	26	0.034710104172
111	110887	27	0.034749895828
111	115170	28	0.034234
111	119474	29	0.034234
111	123766	30	0.03473
111	128061	31	0.034234
111	132326	32	0.033738
111	136548	33	0.033927853248
111	140804	34	0.03365058495
111	145102	35	0.034735760125
111	149380	36	0.032659415242
111	153663	37	0.033738
111	157928	38	0.03473
111	162223	39	0.034234
111	166530	40	0.034234
111	170728	41	0.033718876803
111	175045	42	0.034749123197
111	179316	43	0.033738
111	183568	44	0.033724856144
111	187885	45	0.034743143856
111	192093	46	0.034047609168
111	196391	47	0.03473
111	200607	48	0.034423553451
111	204812	49	0.034155511495
111	209157	50	0.034746739431
111	15798631	51	0.913787408488
111	31611889	52	0.919257681276
111	47426563	53	0.921200588439
111	63241332	54	0.918245116429
111	79058334	55	0.921336726828
111	94871343	56	0.922441163031
111	110684764	57	0.918881644951
111	126516120	58	0.920520321405
111	142320921	59	0.922791187717
111	158139325	60	0.921424693074
111	173972448	61	0.918194354764
111	189787068	62	0.920484348859
111	205606220	63	0.921563079164
111	221421481	64	0.92210200966
111	237226841	65	0.918668040417
111	253044984	66	0.921835271148
111	268839165	67	0.922826814146
111	284679395	68	0.91628758093
111	300479121	69	0.922700783428
111	316303585	70	0.919241252235
110	3911	2	6
110	8188	3	6
110	12474	4	6
110	16738	5	6
110	21088	6	6
110	25380	7	6
110	29681	8	6
110	33937	9	6
110	38247	10	6
110	42554	11	6
110	46858	12	6
110	51129	13	6
110	55379	14	6
110	59638	15	6
110	63871	16	6
110	68146	17	6
110	72448	18	6
110	76728	19	6
110	80989	20	6
110	85336	21	6
110	89592	22	6
110	93836	23	6
110	98050	24	6
110	102297	25	6
110	106546	26	6
110	110887	27	6
110	115170	28	6
110	119474	29	6
110	123766	30	6
110	128061	31	6
110	132326	32	6
110	136548	33	6
110	140804	34	6
110	145102	35	6
110	149380	36	6
110	153663	37	6
110	157928	38	6
110	162223	39	6
110	166530	40	6
110	170728	41	6
110	175045	42	6
110	179316	43	6
110	183568	44	6
110	187885	45	6
110	192093	46	6
110	196391	47	6
110	200607	48	6
110	204812	49	6
110	209157	50	6
110	15798631	51	6
110	31611889	52	6
110	47426563	53	6
110	63241332	54	6
110	79058334	55	6
110	94871343	56	6
110	110684764	57	6
110	126516120	58	6
110	142320921	59	6
110	158139325	60	6
110	173972448	61	6
110	189787068	62	6
110	205606220	63	6
110	221421481	64	6
110	237226841	65	6
110	253044984	66	6
110	268839165	67	6
110	284679395	68	6
110	300479121	69	6
110	316303585	70	6

