version 2
run NBCACC8mpsConf2-1-20210127-01:59:39-21717
attr configname NBCACC8mpsConf2
attr datetime 20210127-01:59:39
attr experiment NBCACC8mpsConf2
attr inifile CEBModule.ini
attr iterationvars "$nCars=7, $platoonSize=7, $nLanes=1, $humanCars=400, $humanLanes=3, $caccSpacing=3.0, $ploegH=0.5, $leaderHeadway=1.2, $leaderSpeed=100, $beaconInterval=0.1, $priority=4, $packetSize=200"
attr iterationvarsf nCars=7,platoonSize=7,nLanes=1,humanCars=400,humanLanes=3,caccSpacing=3.0,ploegH=0.5,leaderHeadway=1.2,leaderSpeed=100,beaconInterval=0.1,priority=4,packetSize=200-
attr measurement "$nCars=7, $platoonSize=7, $nLanes=1, $humanCars=400, $humanLanes=3, $caccSpacing=3.0, $ploegH=0.5, $leaderHeadway=1.2, $leaderSpeed=100, $beaconInterval=0.1, $priority=4, $packetSize=200"
attr network Highway
attr processid 21717
attr repetition 1
attr replication #1
attr resultdir results
attr runnumber 1
attr seedset 1
itervar beaconInterval 0.1
itervar caccSpacing 3.0
itervar humanCars 400
itervar humanLanes 3
itervar leaderHeadway 1.2
itervar leaderSpeed 100
itervar nCars 7
itervar nLanes 1
itervar packetSize 200
itervar platoonSize 7
itervar ploegH 0.5
itervar priority 4
param *.manager.useGui false
param *.node[*].scenario_type "\"BrakingScenario\""
param *.node[*].prot.isRelayEnabled true
param *.node[*].runtimeManager.rmEnabled false
param *.node[*].prot.isCoopEmBrkEnabled true
param *.node[*].prot.isNBEnabled true
param *.node[*].prot.decelarationRate "8 mpsps"
param *.node[*].prot.brakeAtTime 60s
param *.node[*].prot.speedOfLeader 100kmph
param *.node[*].prot.DENMInterval 0.1s
param *.node[*].scenario.leaderOscillationFrequency "0.2 Hz"
param *.playgroundSizeX 65000m
param *.playgroundSizeY 25000m
param *.playgroundSizeZ 50m
param **.debug false
param **.coreDebug false
param *.annotations.draw false
param *.obstacles.debug false
param *.world.useTorus false
param *.world.use2D false
param *.manager.updateInterval 0.01s
param *.manager.host "\"localhost\""
param *.manager.moduleType "\"vtypeauto=org.car2x.veins.modules.application.platooning.PlatoonCar vtypehuman=HumanCar\""
param *.manager.moduleName "\"vtypeauto=node vtypehuman=human\""
param *.manager.moduleDisplayString "\"\""
param *.manager.autoShutdown true
param *.manager.margin 25
param *.connectionManager.sendDirect true
param *.connectionManager.maxInterfDist 2600m
param *.connectionManager.drawMaxIntfDist false
param *.**.nic.mac1609_4.useServiceChannel false
param *.**.nic.mac1609_4.txPower 100mW
param *.**.nic.mac1609_4.bitrate 6Mbps
param *.**.nic.phy80211p.sensitivity -94dBm
param *.**.nic.phy80211p.maxTXPower 100mW
param *.**.nic.phy80211p.useThermalNoise true
param *.**.nic.phy80211p.thermalNoise -95dBm
param *.**.nic.phy80211p.decider "xmldoc(\"config.xml\")"
param *.**.nic.phy80211p.analogueModels "xmldoc(\"config.xml\")"
param *.**.nic.phy80211p.usePropagationDelay true
param *.node[*].mobility.x 0
param *.node[*].mobility.y 0
param *.node[*].mobility.z 1.895
param *.human[*].mobility.x 0
param *.human[*].mobility.y 0
param *.human[*].mobility.z 1.895
param **.seed 1
param *.manager.configFile "\"./sumocfg/freeway.sumo.cfg\""
param *.node[*].scenario.vehicleFile "\"./sumocfg/vehicles.xml\""
param **.numberOfCars 7
param **.numberOfCarsPerPlatoon 7
param **.numberOfLanes 1
param **.numberOfHumanCars 400
param **.numberOfHumanLanes 3
param *.node[*].helper_type "\"PositionHelper\""
param *.node[*].helper.nLanes 1
param *.node[*].helper.platoonSize 7
param *.node[*].helper.nCars 7
param *.node[*].scenario.caccSpacing 3.0m
param *.node[*].scenario.caccC1 0.5
param *.node[*].scenario.caccXi 1
param *.node[*].scenario.caccOmegaN "0.2 Hz"
param *.node[*].scenario.engineTau "0.5 s"
param *.node[*].scenario.ploegH 0.5s
param *.node[*].scenario.ploegKp 0.2
param *.node[*].scenario.ploegKd 0.7
param *.node[*].scenario.useRealisticEngine false
param **.numericController 1
param *.node[*].scenario.controller "\"CACC\""
param **.headway 0.5s
param *.node[*].scenario.accHeadway 0.5s
param *.node[*].scenario.leaderHeadway 1.2s
param *.node[*].scenario.leaderSpeed 100kmph
param *.node[*].appl_type "\"SimplePlatooningApp\""
param *.node[*].protocol_type "\"SimplePlatooningBeaconing\""
param *.node[*].prot.beaconingInterval 0.1s
param *.node[*].prot.priority 4
param *.node[*].prot.packetSize 200
param *.node[*].prot.ackPacketSize 50
param *.node[*].prot.useControllerAcceleration true
param *.node[*].unicast.packetLossRate 0.0
param *.human[*].prot.beaconingInterval ".02 s"
param *.human[*].prot.priority 4
param *.human[*].prot.packetSize 200
param *.human[*].prot.txPower "100 mW"
param *.human[*].prot.bitrate "3 Mbps"
param **.traffic_type "\"PlatoonsPlusHumanTraffic\""
param **.traffic.platoonInsertTime "1 s"
param **.traffic.humanInsertTime "50 s"
param **.traffic.platoonInsertSpeed 100kmph
param **.traffic.nCars 7
param **.traffic.humanCars 400
param **.traffic.platoonSize 7
param **.traffic.nLanes 1
param **.traffic.humanLanes 3
param **.traffic.platooningVType "\"vtypeauto\""
param **.traffic.humanVType "\"vtypehuman\""
param **.traffic.platoonInsertDistance 3.0m
param **.traffic.platoonInsertHeadway 0s
param **.traffic.platoonLeaderHeadway 1.2s

vector 0 Highway.node[0].appl distance ETV
vector 1 Highway.node[0].appl relativeSpeed ETV
vector 2 Highway.node[0].appl nodeId ETV
vector 3 Highway.node[0].appl acceleration ETV
vector 4 Highway.node[0].appl controllerAcceleration ETV
vector 5 Highway.node[0].appl speed ETV
vector 6 Highway.node[0].appl posx ETV
vector 7 Highway.node[0].appl posy ETV
vector 8 Highway.node[1].appl distance ETV
vector 9 Highway.node[1].appl relativeSpeed ETV
vector 10 Highway.node[1].appl nodeId ETV
vector 11 Highway.node[1].appl acceleration ETV
vector 12 Highway.node[1].appl controllerAcceleration ETV
vector 13 Highway.node[1].appl speed ETV
vector 14 Highway.node[1].appl posx ETV
vector 15 Highway.node[1].appl posy ETV
vector 16 Highway.node[2].appl distance ETV
vector 17 Highway.node[2].appl relativeSpeed ETV
vector 18 Highway.node[2].appl nodeId ETV
vector 19 Highway.node[2].appl acceleration ETV
vector 20 Highway.node[2].appl controllerAcceleration ETV
vector 21 Highway.node[2].appl speed ETV
vector 22 Highway.node[2].appl posx ETV
vector 23 Highway.node[2].appl posy ETV
vector 24 Highway.node[3].appl distance ETV
vector 25 Highway.node[3].appl relativeSpeed ETV
vector 26 Highway.node[3].appl nodeId ETV
vector 27 Highway.node[3].appl acceleration ETV
vector 28 Highway.node[3].appl controllerAcceleration ETV
vector 29 Highway.node[3].appl speed ETV
vector 30 Highway.node[3].appl posx ETV
vector 31 Highway.node[3].appl posy ETV
vector 32 Highway.node[4].appl distance ETV
vector 33 Highway.node[4].appl relativeSpeed ETV
vector 34 Highway.node[4].appl nodeId ETV
vector 35 Highway.node[4].appl acceleration ETV
vector 36 Highway.node[4].appl controllerAcceleration ETV
vector 37 Highway.node[4].appl speed ETV
vector 38 Highway.node[4].appl posx ETV
vector 39 Highway.node[4].appl posy ETV
vector 40 Highway.node[5].appl distance ETV
vector 41 Highway.node[5].appl relativeSpeed ETV
vector 42 Highway.node[5].appl nodeId ETV
vector 43 Highway.node[5].appl acceleration ETV
vector 44 Highway.node[5].appl controllerAcceleration ETV
vector 45 Highway.node[5].appl speed ETV
vector 46 Highway.node[5].appl posx ETV
vector 47 Highway.node[5].appl posy ETV
vector 48 Highway.node[6].appl distance ETV
vector 49 Highway.node[6].appl relativeSpeed ETV
vector 50 Highway.node[6].appl nodeId ETV
vector 51 Highway.node[6].appl acceleration ETV
vector 52 Highway.node[6].appl controllerAcceleration ETV
vector 53 Highway.node[6].appl speed ETV
vector 54 Highway.node[6].appl posx ETV
vector 55 Highway.node[6].appl posy ETV
vector 56 Highway.node[2].prot frontDelay ETV
vector 57 Highway.node[2].prot frontDelayId ETV
vector 58 Highway.node[2].prot frontTransmissionN ETV
vector 59 Highway.node[4].prot frontDelay ETV
vector 60 Highway.node[4].prot frontDelayId ETV
vector 61 Highway.node[4].prot frontTransmissionN ETV
vector 62 Highway.node[6].prot frontDelay ETV
vector 63 Highway.node[6].prot frontDelayId ETV
vector 64 Highway.node[6].prot frontTransmissionN ETV
vector 65 Highway.node[5].prot frontDelay ETV
vector 66 Highway.node[5].prot frontDelayId ETV
vector 67 Highway.node[5].prot frontTransmissionN ETV
vector 68 Highway.node[1].prot leaderDelay ETV
vector 69 Highway.node[1].prot leaderDelayId ETV
vector 70 Highway.node[1].prot leaderTransmissionN ETV
vector 71 Highway.node[1].prot frontDelay ETV
vector 72 Highway.node[1].prot frontDelayId ETV
vector 73 Highway.node[1].prot frontTransmissionN ETV
vector 74 Highway.node[2].prot leaderDelay ETV
vector 75 Highway.node[2].prot leaderDelayId ETV
vector 76 Highway.node[2].prot leaderTransmissionN ETV
vector 77 Highway.node[3].prot leaderDelay ETV
vector 78 Highway.node[3].prot leaderDelayId ETV
vector 79 Highway.node[3].prot leaderTransmissionN ETV
vector 80 Highway.node[4].prot leaderDelay ETV
vector 81 Highway.node[4].prot leaderDelayId ETV
vector 82 Highway.node[4].prot leaderTransmissionN ETV
vector 83 Highway.node[5].prot leaderDelay ETV
vector 84 Highway.node[5].prot leaderDelayId ETV
vector 85 Highway.node[5].prot leaderTransmissionN ETV
vector 86 Highway.node[6].prot leaderDelay ETV
vector 87 Highway.node[6].prot leaderDelayId ETV
vector 88 Highway.node[6].prot leaderTransmissionN ETV
vector 89 Highway.node[3].prot frontDelay ETV
vector 90 Highway.node[3].prot frontDelayId ETV
vector 91 Highway.node[3].prot frontTransmissionN ETV
vector 92 Highway.node[0].prot nodeId ETV
vector 93 Highway.node[0].prot busyTime ETV
vector 94 Highway.node[0].prot collisions ETV
vector 95 Highway.node[1].prot nodeId ETV
vector 96 Highway.node[1].prot busyTime ETV
vector 97 Highway.node[1].prot collisions ETV
vector 98 Highway.node[2].prot nodeId ETV
vector 99 Highway.node[2].prot busyTime ETV
vector 100 Highway.node[2].prot collisions ETV
vector 101 Highway.node[3].prot nodeId ETV
vector 102 Highway.node[3].prot busyTime ETV
vector 103 Highway.node[3].prot collisions ETV
vector 104 Highway.node[4].prot nodeId ETV
vector 105 Highway.node[4].prot busyTime ETV
vector 106 Highway.node[4].prot collisions ETV
vector 107 Highway.node[5].prot nodeId ETV
vector 108 Highway.node[5].prot busyTime ETV
vector 109 Highway.node[5].prot collisions ETV
vector 110 Highway.node[6].prot nodeId ETV
vector 111 Highway.node[6].prot busyTime ETV
vector 112 Highway.node[6].prot collisions ETV
vector 113 Highway.node[1].prot firstDENMDelay ETV
vector 114 Highway.node[1].prot noOfRetransmissions ETV
vector 115 Highway.node[5].prot firstDENMDelay ETV
vector 116 Highway.node[5].prot noOfRetransmissions ETV
vector 117 Highway.node[2].prot firstDENMDelay ETV
vector 118 Highway.node[2].prot noOfRetransmissions ETV
vector 119 Highway.node[3].prot firstDENMDelay ETV
vector 120 Highway.node[3].prot noOfRetransmissions ETV
vector 121 Highway.node[0].prot firstDENMDelay ETV
vector 122 Highway.node[0].prot noOfRetransmissions ETV
vector 123 Highway.node[4].prot firstDENMDelay ETV
vector 124 Highway.node[4].prot noOfRetransmissions ETV
vector 125 Highway.node[6].prot firstDENMDelay ETV
vector 126 Highway.node[6].prot noOfRetransmissions ETV
4	232	1.11	-0.00218518
4	662	1.21	-0.00213419
4	1096	1.31	-0.00205408
4	1524	1.41	-0.00195152
4	1958	1.51	-0.00183238
4	2388	1.61	-0.00170178
4	2821	1.71	-0.00156412
4	3256	1.81	-0.00142314
4	3689	1.91	-0.00128196
4	4121	2.01	-0.00114315
4	4551	2.11	-0.00100877
4	4978	2.21	-0.000880447
4	5411	2.31	-0.000759381
4	5838	2.41	-0.000646445
4	6271	2.51	-0.000542204
4	6704	2.61	-0.000446965
4	7137	2.71	-0.000360819
4	7570	2.81	-0.000283678
4	8003	2.91	-0.000215307
4	8431	3.01	-0.000155357
4	8864	3.11	-0.000103391
4	9297	3.21	-5.89069e-05
4	9724	3.31	-2.13575e-05
4	10148	3.41	9.82919e-06
4	10575	3.51	3.52368e-05
4	10993	3.61	5.54479e-05
4	11426	3.71	7.10335e-05
4	11859	3.81	8.25451e-05
4	12253	3.91	9.05081e-05
4	12690	4.01	9.54172e-05
4	13117	4.11	9.7733e-05
4	13550	4.21	9.78798e-05
4	13983	4.31	9.62447e-05
4	14353	4.41	9.31771e-05
4	14771	4.51	8.89894e-05
4	15201	4.61	8.39579e-05
4	15634	4.71	7.83245e-05
4	16061	4.81	7.22983e-05
4	16488	4.91	6.6058e-05
4	16925	5.01	5.9754e-05
4	17358	5.11	5.35107e-05
4	17791	5.21	4.74294e-05
4	18224	5.31	4.15898e-05
4	18654	5.41	3.60534e-05
4	19087	5.51	3.0865e-05
4	19517	5.61	2.60551e-05
4	19944	5.71	2.16419e-05
4	20377	5.81	1.76335e-05
4	20804	5.91	1.40289e-05
4	21244	6.01	1.08202e-05
4	21671	6.11	7.99392e-06
4	22104	6.21	5.532e-06
4	22537	6.31	3.41315e-06
4	22964	6.41	1.61374e-06
4	23397	6.51	1.08654e-07
4	23818	6.61	-1.12799e-06
4	24245	6.71	-2.12224e-06
4	24678	6.81	-2.89981e-06
4	25105	6.91	-3.48567e-06
4	25542	7.01	-3.90376e-06
4	25966	7.11	-4.17673e-06
4	26396	7.21	-4.32574e-06
4	26817	7.31	-4.3704e-06
4	27247	7.41	-4.32865e-06
4	27680	7.51	-4.21676e-06
4	28113	7.61	-4.04934e-06
4	28540	7.71	-3.83937e-06
4	28967	7.81	-3.59826e-06
4	29400	7.91	-3.33592e-06
4	29840	8.01	-3.06089e-06
4	30255	8.11	-2.78036e-06
4	30688	8.21	-2.50036e-06
4	31085	8.31	-2.22582e-06
4	31509	8.41	-1.96068e-06
4	31942	8.51	-1.708e-06
4	32372	8.61	-1.47009e-06
4	32805	8.71	-1.24855e-06
4	33238	8.81	-1.04441e-06
4	33671	8.91	-8.58219e-07
4	34111	9.01	-6.90082e-07
4	34538	9.11	-5.39774e-07
4	34965	9.21	-4.06787e-07
4	35398	9.31	-2.90396e-07
4	35831	9.41	-1.89707e-07
4	36261	9.51	-1.03704e-07
4	36691	9.61	-3.12909e-08
4	37124	9.71	2.86736e-08
4	37551	9.81	7.73515e-08
4	37978	9.91	1.15897e-07
4	38373	10.01	1.45439e-07
4	38788	10.11	1.67065e-07
4	39221	10.21	1.81809e-07
4	39654	10.31	1.90644e-07
4	40087	10.41	1.94472e-07
4	40520	10.51	1.94125e-07
4	40944	10.61	1.90358e-07
4	41377	10.71	1.83853e-07
4	41804	10.81	1.75219e-07
4	42231	10.91	1.64994e-07
4	42668	11.01	1.53647e-07
4	43083	11.11	1.41582e-07
4	43507	11.21	1.29146e-07
4	43940	11.31	1.16627e-07
4	44367	11.41	1.04266e-07
4	44800	11.51	9.22547e-08
4	45230	11.61	8.07471e-08
4	45657	11.71	6.98584e-08
4	46090	11.81	5.96732e-08
4	46514	11.91	5.02471e-08
4	46948	12.01	4.16133e-08
4	47369	12.11	3.37845e-08
4	47787	12.21	2.67558e-08
4	48220	12.31	2.05102e-08
4	48647	12.41	1.50187e-08
4	49074	12.51	1.02442e-08
4	49507	12.61	6.14406e-09
4	49940	12.71	2.67022e-09
4	50373	12.81	-2.27374e-10
4	50803	12.91	-2.60059e-09
4	51234	13.01	-4.50058e-09
4	51658	13.11	-5.97851e-09
4	52085	13.21	-7.08376e-09
4	52518	13.31	-7.86322e-09
4	52945	13.41	-8.36167e-09
4	53372	13.51	-8.62066e-09
4	53799	13.61	-8.67857e-09
4	54226	13.71	-8.57057e-09
4	54656	13.81	-8.32792e-09
4	55089	13.91	-7.97975e-09
4	55529	14.01	-7.55058e-09
4	55959	14.11	-7.06351e-09
4	56389	14.21	-6.53699e-09
4	56822	14.31	-5.98774e-09
4	57249	14.41	-5.42997e-09
4	57682	14.51	-4.87468e-09
4	58109	14.61	-4.33182e-09
4	58542	14.71	-3.80886e-09
4	58969	14.81	-3.31148e-09
4	59399	14.91	-2.84395e-09
4	59833	15.01	-2.40981e-09
4	60266	15.11	-2.01013e-09
4	60693	15.21	-1.64633e-09
4	61120	15.31	-1.31806e-09
4	61553	15.41	-1.02531e-09
4	61986	15.51	-7.66676e-10
4	62410	15.61	-5.40723e-10
4	62843	15.71	-3.46034e-10
4	63276	15.81	-1.79767e-10
4	63697	15.91	-4.01457e-11
4	64134	16.01	7.49623e-11
4	64558	16.11	1.68043e-10
4	64988	16.21	2.41585e-10
4	65418	16.31	2.97362e-10
4	65818	16.41	3.37863e-10
4	66251	16.51	3.64864e-10
4	66681	16.61	3.80851e-10
4	67108	16.71	3.86891e-10
4	67532	16.81	3.84759e-10
4	67965	16.91	3.76232e-10
4	68399	17.01	3.62377e-10
4	68820	17.11	3.44613e-10
4	69247	17.21	3.24007e-10
4	69674	17.31	3.00915e-10
4	70107	17.41	2.76756e-10
4	70498	17.51	2.52243e-10
4	70931	17.61	2.27374e-10
4	71358	17.71	2.0286e-10
4	71779	17.81	1.79057e-10
4	72212	17.91	1.56319e-10
4	72646	18.01	1.35003e-10
4	73064	18.11	1.15108e-10
4	73497	18.21	9.66338e-11
4	73924	18.31	7.99361e-11
4	74354	18.41	6.46594e-11
4	74787	18.51	5.08038e-11
4	75217	18.61	3.83693e-11
4	75644	18.71	2.73559e-11
4	76074	18.81	1.77636e-11
4	76501	18.91	9.59233e-12
4	76941	19.01	2.84217e-12
4	77362	19.11	-2.84217e-12
4	77792	19.21	-7.4607e-12
4	78219	19.31	-1.13687e-11
4	78652	19.41	-1.42109e-11
4	79085	19.51	-1.63425e-11
4	79518	19.61	-1.77636e-11
4	79915	19.71	-1.84741e-11
4	80321	19.81	-1.88294e-11
4	80754	19.91	-1.88294e-11
4	81185	20.01	-1.88294e-11
4	81618	20.11	-1.81188e-11
4	82051	20.21	-1.7053e-11
4	82484	20.31	-1.63425e-11
4	82911	20.41	-1.52767e-11
4	83338	20.51	-1.45661e-11
4	83771	20.61	-1.35003e-11
4	84198	20.71	-1.27898e-11
4	84622	20.81	-1.1724e-11
4	85052	20.91	-1.10134e-11
4	85489	21.01	-9.9476e-12
4	85922	21.11	-9.23706e-12
4	86355	21.21	-8.17124e-12
4	86788	21.31	-7.4607e-12
4	87221	21.41	-6.39488e-12
4	87651	21.51	-5.68434e-12
4	88084	21.61	-4.61853e-12
4	88511	21.71	-3.90799e-12
4	88944	21.81	-2.84217e-12
4	89344	21.91	-2.13163e-12
4	89784	22.01	-1.06581e-12
4	90217	22.11	-3.55271e-13
4	90650	22.21	7.10543e-13
4	91077	22.31	1.42109e-12
4	91510	22.41	2.13163e-12
4	91934	22.51	2.84217e-12
4	92364	22.61	3.19744e-12
4	92791	22.71	3.90799e-12
4	93224	22.81	4.26326e-12
4	93639	22.91	4.61853e-12
4	94070	23.01	5.32907e-12
4	94497	23.11	5.68434e-12
4	94924	23.21	5.68434e-12
4	95357	23.31	6.03961e-12
4	95790	23.41	6.39488e-12
4	96184	23.51	6.75016e-12
4	96608	23.61	6.75016e-12
4	97041	23.71	7.10543e-12
4	97471	23.81	7.10543e-12
4	97889	23.91	7.4607e-12
4	98326	24.01	7.4607e-12
4	98750	24.11	7.81597e-12
4	99174	24.21	7.81597e-12
4	99607	24.31	7.81597e-12
4	100034	24.41	7.81597e-12
4	100467	24.51	8.17124e-12
4	100900	24.61	8.17124e-12
4	101324	24.71	8.17124e-12
4	101748	24.81	8.17124e-12
4	102175	24.91	8.17124e-12
4	102612	25.01	8.52651e-12
4	103045	25.11	8.52651e-12
4	103469	25.21	8.52651e-12
4	103902	25.31	8.52651e-12
4	104332	25.41	8.52651e-12
4	104765	25.51	8.52651e-12
4	105198	25.61	8.52651e-12
4	105625	25.71	8.52651e-12
4	106058	25.81	8.52651e-12
4	106488	25.91	8.52651e-12
4	106928	26.01	8.88178e-12
4	107349	26.11	8.88178e-12
4	107770	26.21	8.88178e-12
4	108197	26.31	8.88178e-12
4	108621	26.41	8.88178e-12
4	109048	26.51	8.88178e-12
4	109478	26.61	8.88178e-12
4	109902	26.71	8.88178e-12
4	110335	26.81	8.88178e-12
4	110768	26.91	8.88178e-12
4	111205	27.01	8.88178e-12
4	111632	27.11	8.88178e-12
4	112065	27.21	8.88178e-12
4	112498	27.31	8.88178e-12
4	112922	27.41	8.88178e-12
4	113355	27.51	8.88178e-12
4	113788	27.61	8.88178e-12
4	114203	27.71	8.88178e-12
4	114633	27.81	8.88178e-12
4	115066	27.91	8.88178e-12
4	115500	28.01	8.88178e-12
4	115921	28.11	8.88178e-12
4	116354	28.21	8.88178e-12
4	116784	28.31	8.88178e-12
4	117217	28.41	8.88178e-12
4	117647	28.51	8.88178e-12
4	118074	28.61	8.88178e-12
4	118507	28.71	8.88178e-12
4	118934	28.81	8.88178e-12
4	119328	28.91	8.88178e-12
4	119768	29.01	8.88178e-12
4	120198	29.11	8.88178e-12
4	120622	29.21	8.88178e-12
4	121052	29.31	8.88178e-12
4	121485	29.41	8.88178e-12
4	121918	29.51	8.88178e-12
4	122345	29.61	8.88178e-12
4	122778	29.71	8.88178e-12
4	123205	29.81	8.88178e-12
4	123629	29.91	8.88178e-12
4	124063	30.01	8.88178e-12
4	124493	30.11	8.88178e-12
4	124917	30.21	8.88178e-12
4	125341	30.31	8.88178e-12
4	125762	30.41	8.88178e-12
4	126192	30.51	8.88178e-12
4	126619	30.61	8.88178e-12
4	127052	30.71	8.88178e-12
4	127485	30.81	8.88178e-12
4	127918	30.91	8.88178e-12
4	128346	31.01	8.88178e-12
4	128773	31.11	8.88178e-12
4	129206	31.21	8.88178e-12
4	129639	31.31	8.88178e-12
4	130066	31.41	8.88178e-12
4	130487	31.51	8.88178e-12
4	130914	31.61	8.88178e-12
4	131344	31.71	8.88178e-12
4	131777	31.81	8.88178e-12
4	132201	31.91	8.88178e-12
4	132638	32.01	8.88178e-12
4	133068	32.11	8.88178e-12
4	133501	32.21	8.88178e-12
4	133925	32.31	8.88178e-12
4	134355	32.41	8.88178e-12
4	134788	32.51	8.88178e-12
4	135215	32.61	8.88178e-12
4	135639	32.71	8.88178e-12
4	136066	32.81	8.88178e-12
4	136499	32.91	8.88178e-12
4	136933	33.01	8.88178e-12
4	137366	33.11	8.88178e-12
4	137799	33.21	8.88178e-12
4	138232	33.31	8.88178e-12
4	138653	33.41	8.88178e-12
4	139086	33.51	8.88178e-12
4	139516	33.61	8.88178e-12
4	139949	33.71	8.88178e-12
4	140373	33.81	8.88178e-12
4	140794	33.91	8.88178e-12
4	141234	34.01	8.88178e-12
4	141658	34.11	8.88178e-12
4	142091	34.21	8.88178e-12
4	142524	34.31	8.88178e-12
4	142957	34.41	8.88178e-12
4	143390	34.51	8.88178e-12
4	143823	34.61	8.88178e-12
4	144250	34.71	8.88178e-12
4	144683	34.81	8.88178e-12
4	145113	34.91	8.88178e-12
4	145538	35.01	8.88178e-12
4	145965	35.11	8.88178e-12
4	146395	35.21	8.88178e-12
4	146816	35.31	8.88178e-12
4	147243	35.41	8.88178e-12
4	147667	35.51	8.88178e-12
4	148079	35.61	8.88178e-12
4	148512	35.71	8.88178e-12
4	148945	35.81	8.88178e-12
4	149369	35.91	8.88178e-12
4	149809	36.01	8.88178e-12
4	150239	36.11	8.88178e-12
4	150672	36.21	8.88178e-12
4	151099	36.31	8.88178e-12
4	151532	36.41	8.88178e-12
4	151924	36.51	8.88178e-12
4	152336	36.61	8.88178e-12
4	152757	36.71	8.88178e-12
4	153142	36.81	8.88178e-12
4	153560	36.91	8.88178e-12
4	154000	37.01	8.88178e-12
4	154433	37.11	8.88178e-12
4	154866	37.21	8.88178e-12
4	155290	37.31	8.88178e-12
4	155711	37.41	8.88178e-12
4	156132	37.51	8.88178e-12
4	156553	37.61	8.88178e-12
4	156980	37.71	8.88178e-12
4	157413	37.81	8.88178e-12
4	157840	37.91	8.88178e-12
4	158271	38.01	8.88178e-12
4	158662	38.11	8.88178e-12
4	159092	38.21	8.88178e-12
4	159525	38.31	8.88178e-12
4	159958	38.41	8.88178e-12
4	160382	38.51	8.88178e-12
4	160809	38.61	8.88178e-12
4	161236	38.71	8.88178e-12
4	161663	38.81	8.88178e-12
4	162084	38.91	8.88178e-12
4	162524	39.01	8.88178e-12
4	162915	39.11	8.88178e-12
4	163348	39.21	8.88178e-12
4	163781	39.31	8.88178e-12
4	164202	39.41	8.88178e-12
4	164626	39.51	8.88178e-12
4	165059	39.61	8.88178e-12
4	165486	39.71	8.88178e-12
4	165913	39.81	8.88178e-12
4	166340	39.91	8.88178e-12
4	166780	40.01	8.88178e-12
4	167204	40.11	8.88178e-12
4	167619	40.21	8.88178e-12
4	168049	40.31	8.88178e-12
4	168443	40.41	8.88178e-12
4	168876	40.51	8.88178e-12
4	169303	40.61	8.88178e-12
4	169736	40.71	8.88178e-12
4	170166	40.81	8.88178e-12
4	170599	40.91	8.88178e-12
4	171033	41.01	8.88178e-12
4	171466	41.11	8.88178e-12
4	171893	41.21	8.88178e-12
4	172287	41.31	8.88178e-12
4	172720	41.41	8.88178e-12
4	173153	41.51	8.88178e-12
4	173580	41.61	8.88178e-12
4	174007	41.71	8.88178e-12
4	174434	41.81	8.88178e-12
4	174861	41.91	8.88178e-12
4	175301	42.01	8.88178e-12
4	175734	42.11	8.88178e-12
4	176155	42.21	8.88178e-12
4	176585	42.31	8.88178e-12
4	177018	42.41	8.88178e-12
4	177451	42.51	8.88178e-12
4	177845	42.61	8.88178e-12
4	178272	42.71	8.88178e-12
4	178693	42.81	8.88178e-12
4	179117	42.91	8.88178e-12
4	179548	43.01	8.88178e-12
4	179978	43.11	8.88178e-12
4	180408	43.21	8.88178e-12
4	180838	43.31	8.88178e-12
4	181271	43.41	8.88178e-12
4	181695	43.51	8.88178e-12
4	182119	43.61	8.88178e-12
4	182534	43.71	8.88178e-12
4	182961	43.81	8.88178e-12
4	183385	43.91	8.88178e-12
4	183810	44.01	8.88178e-12
4	184243	44.11	8.88178e-12
4	184676	44.21	8.88178e-12
4	185109	44.31	8.88178e-12
4	185542	44.41	8.88178e-12
4	185972	44.51	8.88178e-12
4	186402	44.61	8.88178e-12
4	186829	44.71	8.88178e-12
4	187259	44.81	8.88178e-12
4	187680	44.91	8.88178e-12
4	188117	45.01	8.88178e-12
4	188541	45.11	8.88178e-12
4	188968	45.21	8.88178e-12
4	189401	45.31	8.88178e-12
4	189834	45.41	8.88178e-12
4	190261	45.51	8.88178e-12
4	190679	45.61	8.88178e-12
4	191106	45.71	8.88178e-12
4	191533	45.81	8.88178e-12
4	191963	45.91	8.88178e-12
4	192397	46.01	8.88178e-12
4	192830	46.11	8.88178e-12
4	193257	46.21	8.88178e-12
4	193684	46.31	8.88178e-12
4	194114	46.41	8.88178e-12
4	194547	46.51	8.88178e-12
4	194980	46.61	8.88178e-12
4	195407	46.71	8.88178e-12
4	195831	46.81	8.88178e-12
4	196255	46.91	8.88178e-12
4	196683	47.01	8.88178e-12
4	197116	47.11	8.88178e-12
4	197546	47.21	8.88178e-12
4	197979	47.31	8.88178e-12
4	198403	47.41	8.88178e-12
4	198830	47.51	8.88178e-12
4	199263	47.61	8.88178e-12
4	199693	47.71	8.88178e-12
4	200120	47.81	8.88178e-12
4	200547	47.91	8.88178e-12
4	200981	48.01	8.88178e-12
4	201393	48.11	8.88178e-12
4	201826	48.21	8.88178e-12
4	202253	48.31	8.88178e-12
4	202674	48.41	8.88178e-12
4	203092	48.51	8.88178e-12
4	203519	48.61	8.88178e-12
4	203952	48.71	8.88178e-12
4	204385	48.81	8.88178e-12
4	204809	48.91	8.88178e-12
4	205249	49.01	8.88178e-12
4	205679	49.11	8.88178e-12
4	206112	49.21	8.88178e-12
4	206503	49.31	8.88178e-12
4	206933	49.41	8.88178e-12
4	207360	49.51	8.88178e-12
4	207793	49.61	8.88178e-12
4	208220	49.71	8.88178e-12
4	208650	49.81	8.88178e-12
4	209077	49.91	8.88178e-12
4	209503	50.01	8.88178e-12
4	1725319	50.11	8.88178e-12
4	3307839	50.21	8.88178e-12
4	4887109	50.31	8.88178e-12
4	6468005	50.41	8.88178e-12
4	8066504	50.51	8.88178e-12
4	9633374	50.61	8.88178e-12
4	11223058	50.71	8.88178e-12
4	12809955	50.81	8.88178e-12
4	14388966	50.91	8.88178e-12
4	15969661	51.01	8.88178e-12
4	17531358	51.11	8.88178e-12
4	19125717	51.21	8.88178e-12
4	20709198	51.31	8.88178e-12
4	22288365	51.41	8.88178e-12
4	23868412	51.51	8.88178e-12
4	25461875	51.61	8.88178e-12
4	27034424	51.71	8.88178e-12
4	28615351	51.81	8.88178e-12
4	30201592	51.91	8.88178e-12
4	31775266	52.01	8.88178e-12
4	33367706	52.11	8.88178e-12
4	34948376	52.21	8.88178e-12
4	36531581	52.31	8.88178e-12
4	38104494	52.41	8.88178e-12
4	39692408	52.51	8.88178e-12
4	41268740	52.61	8.88178e-12
4	42850792	52.71	8.88178e-12
4	44431964	52.81	8.88178e-12
4	46016615	52.91	8.88178e-12
4	47594403	53.01	8.88178e-12
4	49172955	53.11	8.88178e-12
4	50755240	53.21	8.88178e-12
4	52350339	53.31	8.88178e-12
4	53924710	53.41	8.88178e-12
4	55511017	53.51	8.88178e-12
4	57099345	53.61	8.88178e-12
4	58663601	53.71	8.88178e-12
4	60256949	53.81	8.88178e-12
4	61836179	53.91	8.88178e-12
4	63426474	54.01	8.88178e-12
4	65014372	54.11	8.88178e-12
4	66582109	54.21	8.88178e-12
4	68171449	54.31	8.88178e-12
4	69757428	54.41	8.88178e-12
4	71337383	54.51	8.88178e-12
4	72916926	54.61	8.88178e-12
4	74486606	54.71	8.88178e-12
4	76072872	54.81	8.88178e-12
4	77652848	54.91	8.88178e-12
4	79233822	55.01	8.88178e-12
4	80820779	55.11	8.88178e-12
4	82395883	55.21	8.88178e-12
4	83982413	55.31	8.88178e-12
4	85553515	55.41	8.88178e-12
4	87135795	55.51	8.88178e-12
4	88715326	55.61	8.88178e-12
4	90295252	55.71	8.88178e-12
4	91878581	55.81	8.88178e-12
4	93458560	55.91	8.88178e-12
4	95054041	56.01	8.88178e-12
4	96625493	56.11	8.88178e-12
4	98191969	56.21	8.88178e-12
4	99780729	56.31	8.88178e-12
4	101358879	56.41	8.88178e-12
4	102927335	56.51	8.88178e-12
4	104525213	56.61	8.88178e-12
4	106106487	56.71	8.88178e-12
4	107682184	56.81	8.88178e-12
4	109275271	56.91	8.88178e-12
4	110859074	57.01	8.88178e-12
4	112434961	57.11	8.88178e-12
4	114023661	57.21	8.88178e-12
4	115596123	57.31	8.88178e-12
4	117177979	57.41	8.88178e-12
4	118773203	57.51	8.88178e-12
4	120348969	57.61	8.88178e-12
4	121927550	57.71	8.88178e-12
4	123506618	57.81	8.88178e-12
4	125102404	57.91	8.88178e-12
4	126684430	58.01	8.88178e-12
4	128256468	58.11	8.88178e-12
4	129840238	58.21	8.88178e-12
4	131430114	58.31	8.88178e-12
4	132995802	58.41	8.88178e-12
4	134576505	58.51	8.88178e-12
4	136168381	58.61	8.88178e-12
4	137747054	58.71	8.88178e-12
4	139334137	58.81	8.88178e-12
4	140909276	58.91	8.88178e-12
4	142487969	59.01	8.88178e-12
4	144066161	59.11	8.88178e-12
4	145645437	59.21	8.88178e-12
4	147231373	59.31	8.88178e-12
4	148817130	59.41	8.88178e-12
4	150398768	59.51	8.88178e-12
4	151972666	59.61	8.88178e-12
4	153558193	59.71	8.88178e-12
4	155132811	59.81	8.88178e-12
4	156713208	59.91	8.88178e-12
4	158290688	60.01	-8
4	159871809	60.11	-8
4	161454363	60.21	-8
4	163045359	60.31	-8
4	164628676	60.41	-8
4	166201921	60.51	-8
4	167796974	60.61	-8
4	169367360	60.71	-8
4	170954430	60.81	-8
4	172528478	60.91	-8
4	174122710	61.01	-8
4	175697174	61.11	-8
4	177288162	61.21	-8
4	178869326	61.31	-8
4	180454111	61.41	-8
4	182034363	61.51	-8
4	183610137	61.61	-8
4	185192739	61.71	-8
4	186774498	61.81	-8
4	188357660	61.91	-8
4	189955215	62.01	-8
4	191527548	62.11	-8
4	193107990	62.21	-8
4	194701529	62.31	-8
4	196284639	62.41	-8
4	197869482	62.51	-8
4	199448727	62.61	-8
4	201032367	62.71	-8
4	202617776	62.81	-8
4	204199451	62.91	-8
4	205778966	63.01	-8
4	207349378	63.11	-8
4	208932168	63.21	-8
4	210521261	63.31	-8
4	212094488	63.41	-8
4	213683989	63.51	-8
4	215270414	63.61	-8
4	216841233	63.71	-8
4	218440256	63.81	-8
4	220010301	63.91	-8
4	221597479	64.01	0
4	223179033	64.11	0
4	224756721	64.21	0
4	226336757	64.31	0
4	227923378	64.41	0
4	229499687	64.51	0
4	231081319	64.61	0
4	232667924	64.71	0
4	234246806	64.81	0
4	235830825	64.91	0
4	237403318	65.01	0
4	238984106	65.11	0
4	240561986	65.21	0
4	242142378	65.31	0
4	243720566	65.41	0
4	245315775	65.51	0
4	246899272	65.61	0
4	248476990	65.71	0
4	250034097	65.81	0
4	251646375	65.91	0
4	253211085	66.01	0
4	254796649	66.11	0
4	256389317	66.21	0
4	257953888	66.31	0
4	259553077	66.41	0
4	261123243	66.51	0
4	262715739	66.61	0
4	264297890	66.71	0
4	265878116	66.81	0
4	267453367	66.91	0
4	269040905	67.01	0
4	270621605	67.11	0
4	272208100	67.21	0
4	273792296	67.31	0
4	275359709	67.41	0
4	276940256	67.51	0
4	278529973	67.61	0
4	280105474	67.71	0
4	281692437	67.81	0
4	283281677	67.91	0
4	284843180	68.01	0
4	286440026	68.11	0
4	288013903	68.21	0
4	289592977	68.31	0
4	291178457	68.41	0
4	292761720	68.51	0
4	294332670	68.61	0
4	295918305	68.71	0
4	297504336	68.81	0
4	299073319	68.91	0
4	300666991	69.01	0
4	302236146	69.11	0
4	303818616	69.21	0
4	305406697	69.31	0
4	306985778	69.41	0
4	308556233	69.51	0
4	310134564	69.61	0
4	311718737	69.71	0
4	313299649	69.81	0
4	314884620	69.91	0
3	232	1.11	-0.000358191
3	662	1.21	-0.000681704
3	1096	1.31	-0.00093487
3	1524	1.41	-0.00112579
3	1958	1.51	-0.00126221
3	2388	1.61	-0.00135149
3	2821	1.71	-0.00140049
3	3256	1.81	-0.00141557
3	3689	1.91	-0.00140255
3	4121	2.01	-0.00136671
3	4551	2.11	-0.0013128
3	4978	2.21	-0.00124502
3	5411	2.31	-0.0011671
3	5838	2.41	-0.00108223
3	6271	2.51	-0.000993208
3	6704	2.61	-0.000902362
3	7137	2.71	-0.000811651
3	7570	2.81	-0.000722679
3	8003	2.91	-0.000636729
3	8431	3.01	-0.0005548
3	8864	3.11	-0.000477639
3	9297	3.21	-0.000405773
3	9724	3.31	-0.00033954
3	10148	3.41	-0.000279116
3	10575	3.51	-0.000224541
3	10993	3.61	-0.000175743
3	11426	3.71	-0.00013256
3	11859	3.81	-9.47571e-05
3	12253	3.91	-6.2046e-05
3	12690	4.01	-3.40986e-05
3	13117	4.11	-1.05605e-05
3	13550	4.21	8.93844e-06
3	13983	4.31	2.4774e-05
3	14353	4.41	3.73203e-05
3	14771	4.51	4.69433e-05
3	15201	4.61	5.39956e-05
3	15634	4.71	5.88124e-05
3	16061	4.81	6.1709e-05
3	16488	4.91	6.29785e-05
3	16925	5.01	6.28903e-05
3	17358	5.11	6.169e-05
3	17791	5.21	5.95988e-05
3	18224	5.31	5.68144e-05
3	18654	5.41	5.35112e-05
3	19087	5.51	4.98416e-05
3	19517	5.61	4.59373e-05
3	19944	5.71	4.19105e-05
3	20377	5.81	3.78555e-05
3	20804	5.91	3.38499e-05
3	21244	6.01	2.99569e-05
3	21671	6.11	2.62259e-05
3	22104	6.21	2.26948e-05
3	22537	6.31	1.93911e-05
3	22964	6.41	1.6333e-05
3	23397	6.51	1.35314e-05
3	23818	6.61	1.09904e-05
3	24245	6.71	8.70882e-06
3	24678	6.81	6.6809e-06
3	25105	6.91	4.89747e-06
3	25542	7.01	3.3466e-06
3	25966	7.11	2.01432e-06
3	26396	7.21	8.85256e-07
3	26817	7.31	-5.68459e-08
3	27247	7.41	-8.28678e-07
3	27680	7.51	-1.44699e-06
3	28113	7.61	-1.92826e-06
3	28540	7.71	-2.28849e-06
3	28967	7.81	-2.54296e-06
3	29400	7.91	-2.7061e-06
3	29840	8.01	-2.79139e-06
3	30255	8.11	-2.8113e-06
3	30688	8.21	-2.77721e-06
3	31085	8.31	-2.69943e-06
3	31509	8.41	-2.58721e-06
3	31942	8.51	-2.44874e-06
3	32372	8.61	-2.29123e-06
3	32805	8.71	-2.12092e-06
3	33238	8.81	-1.94317e-06
3	33671	8.91	-1.7625e-06
3	34111	9.01	-1.58267e-06
3	34538	9.11	-1.40677e-06
3	34965	9.21	-1.23723e-06
3	35398	9.31	-1.07596e-06
3	35831	9.41	-9.24364e-07
3	36261	9.51	-7.83424e-07
3	36691	9.61	-6.53753e-07
3	37124	9.71	-5.35652e-07
3	37551	9.81	-4.2916e-07
3	37978	9.91	-3.34103e-07
3	38373	10.01	-2.5013e-07
3	38788	10.11	-1.76757e-07
3	39221	10.21	-1.13395e-07
3	39654	10.31	-5.93825e-08
3	40087	10.41	-1.40084e-08
3	40520	10.51	2.34657e-08
3	40944	10.61	5.3787e-08
3	41377	10.71	7.76954e-08
3	41804	10.81	9.59155e-08
3	42231	10.91	1.09142e-07
3	42668	11.01	1.18035e-07
3	43083	11.11	1.23212e-07
3	43507	11.21	1.2525e-07
3	43940	11.31	1.24675e-07
3	44367	11.41	1.21968e-07
3	44800	11.51	1.17559e-07
3	45230	11.61	1.11834e-07
3	45657	11.71	1.05132e-07
3	46090	11.81	9.77476e-08
3	46514	11.91	8.99373e-08
3	46948	12.01	8.19171e-08
3	47369	12.11	7.38677e-08
3	47787	12.21	6.59401e-08
3	48220	12.31	5.82538e-08
3	48647	12.41	5.09036e-08
3	49074	12.51	4.39606e-08
3	49507	12.61	3.74765e-08
3	49940	12.71	3.14852e-08
3	50373	12.81	2.60055e-08
3	50803	12.91	2.10438e-08
3	51234	13.01	1.65958e-08
3	51658	13.11	1.26498e-08
3	52085	13.21	9.18554e-09
3	52518	13.31	6.17888e-09
3	52945	13.41	3.60174e-09
3	53372	13.51	1.42322e-09
3	53799	13.61	-3.90088e-10
3	54226	13.71	-1.8705e-09
3	54656	13.81	-3.05107e-09
3	55089	13.91	-3.96518e-09
3	55529	14.01	-4.64375e-09
3	55959	14.11	-5.11768e-09
3	56389	14.21	-5.41434e-09
3	56822	14.31	-5.56071e-09
3	57249	14.41	-5.58096e-09
3	57682	14.51	-5.49747e-09
3	58109	14.61	-5.33085e-09
3	58542	14.71	-5.09743e-09
3	58969	14.81	-4.81464e-09
3	59399	14.91	-4.49667e-09
3	59833	15.01	-4.15525e-09
3	60266	15.11	-3.80034e-09
3	60693	15.21	-3.44151e-09
3	61120	15.31	-3.08518e-09
3	61553	15.41	-2.73772e-09
3	61986	15.51	-2.40306e-09
3	62410	15.61	-2.08544e-09
3	62843	15.71	-1.78773e-09
3	63276	15.81	-1.51132e-09
3	63697	15.91	-1.25766e-09
3	64134	16.01	-1.02673e-09
3	64558	16.11	-8.18901e-10
3	64988	16.21	-6.33804e-10
3	65418	16.31	-4.70735e-10
3	65818	16.41	-3.28271e-10
3	66251	16.51	-2.05702e-10
3	66681	16.61	-1.00897e-10
3	67108	16.71	-1.35003e-11
3	67532	16.81	5.82645e-11
3	67965	16.91	1.16174e-10
3	68399	17.01	1.61648e-10
3	68820	17.11	1.95755e-10
3	69247	17.21	2.20624e-10
3	69674	17.31	2.36966e-10
3	70107	17.41	2.45848e-10
3	70498	17.51	2.4869e-10
3	70931	17.61	2.46914e-10
3	71358	17.71	2.40874e-10
3	71779	17.81	2.31282e-10
3	72212	17.91	2.19913e-10
3	72646	18.01	2.05702e-10
3	73064	18.11	1.91491e-10
3	73497	18.21	1.7657e-10
3	73924	18.31	1.59872e-10
3	74354	18.41	1.44595e-10
3	74787	18.51	1.30385e-10
3	75217	18.61	1.16174e-10
3	75644	18.71	1.01963e-10
3	76074	18.81	8.7752e-11
3	76501	18.91	7.35412e-11
3	76941	19.01	6.21725e-11
3	77362	19.11	5.15143e-11
3	77792	19.21	4.08562e-11
3	78219	19.31	3.16192e-11
3	78652	19.41	2.45137e-11
3	79085	19.51	1.74083e-11
3	79518	19.61	1.03029e-11
3	79915	19.71	6.03961e-12
3	80321	19.81	2.4869e-12
3	80754	19.91	-1.06581e-12
3	81185	20.01	-4.61853e-12
3	81618	20.11	-8.17124e-12
3	82051	20.21	-8.88178e-12
3	82484	20.31	-8.88178e-12
3	82911	20.41	-8.88178e-12
3	83338	20.51	-8.88178e-12
3	83771	20.61	-8.88178e-12
3	84198	20.71	-8.88178e-12
3	84622	20.81	-8.88178e-12
3	85052	20.91	-8.88178e-12
3	85489	21.01	-8.88178e-12
3	85922	21.11	-8.88178e-12
3	86355	21.21	-8.88178e-12
3	86788	21.31	-8.88178e-12
3	87221	21.41	-8.88178e-12
3	87651	21.51	-8.88178e-12
3	88084	21.61	-8.88178e-12
3	88511	21.71	-8.88178e-12
3	88944	21.81	-8.88178e-12
3	89344	21.91	-8.88178e-12
3	89784	22.01	-8.88178e-12
3	90217	22.11	-8.88178e-12
3	90650	22.21	-8.17124e-12
3	91077	22.31	-7.4607e-12
3	91510	22.41	-6.75016e-12
3	91934	22.51	-6.03961e-12
3	92364	22.61	-5.68434e-12
3	92791	22.71	-4.9738e-12
3	93224	22.81	-4.61853e-12
3	93639	22.91	-4.26326e-12
3	94070	23.01	-3.55271e-12
3	94497	23.11	-3.19744e-12
3	94924	23.21	-3.19744e-12
3	95357	23.31	-2.84217e-12
3	95790	23.41	-2.4869e-12
3	96184	23.51	-2.13163e-12
3	96608	23.61	-2.13163e-12
3	97041	23.71	-1.77636e-12
3	97471	23.81	-1.77636e-12
3	97889	23.91	-1.42109e-12
3	98326	24.01	-1.42109e-12
3	98750	24.11	-1.06581e-12
3	99174	24.21	-1.06581e-12
3	99607	24.31	-1.06581e-12
3	100034	24.41	-1.06581e-12
3	100467	24.51	-7.10543e-13
3	100900	24.61	-7.10543e-13
3	101324	24.71	-7.10543e-13
3	101748	24.81	-7.10543e-13
3	102175	24.91	-7.10543e-13
3	102612	25.01	-3.55271e-13
3	103045	25.11	-3.55271e-13
3	103469	25.21	-3.55271e-13
3	103902	25.31	-3.55271e-13
3	104332	25.41	-3.55271e-13
3	104765	25.51	-3.55271e-13
3	105198	25.61	-3.55271e-13
3	105625	25.71	-3.55271e-13
3	106058	25.81	-3.55271e-13
3	106488	25.91	-3.55271e-13
3	106928	26.01	0
3	107349	26.11	0
3	107770	26.21	0
3	108197	26.31	0
3	108621	26.41	0
3	109048	26.51	0
3	109478	26.61	0
3	109902	26.71	0
3	110335	26.81	0
3	110768	26.91	0
3	111205	27.01	0
3	111632	27.11	0
3	112065	27.21	0
3	112498	27.31	0
3	112922	27.41	0
3	113355	27.51	0
3	113788	27.61	0
3	114203	27.71	0
3	114633	27.81	0
3	115066	27.91	0
3	115500	28.01	0
3	115921	28.11	0
3	116354	28.21	0
3	116784	28.31	0
3	117217	28.41	0
3	117647	28.51	0
3	118074	28.61	0
3	118507	28.71	0
3	118934	28.81	0
3	119328	28.91	0
3	119768	29.01	0
3	120198	29.11	0
3	120622	29.21	0
3	121052	29.31	0
3	121485	29.41	0
3	121918	29.51	0
3	122345	29.61	0
3	122778	29.71	0
3	123205	29.81	0
3	123629	29.91	0
3	124063	30.01	0
3	124493	30.11	0
3	124917	30.21	0
3	125341	30.31	0
3	125762	30.41	0
3	126192	30.51	0
3	126619	30.61	0
3	127052	30.71	0
3	127485	30.81	0
3	127918	30.91	0
3	128346	31.01	0
3	128773	31.11	0
3	129206	31.21	0
3	129639	31.31	0
3	130066	31.41	0
3	130487	31.51	0
3	130914	31.61	0
3	131344	31.71	0
3	131777	31.81	0
3	132201	31.91	0
3	132638	32.01	0
3	133068	32.11	0
3	133501	32.21	0
3	133925	32.31	0
3	134355	32.41	0
3	134788	32.51	0
3	135215	32.61	0
3	135639	32.71	0
3	136066	32.81	0
3	136499	32.91	0
3	136933	33.01	0
3	137366	33.11	0
3	137799	33.21	0
3	138232	33.31	0
3	138653	33.41	0
3	139086	33.51	0
3	139516	33.61	0
3	139949	33.71	0
3	140373	33.81	0
3	140794	33.91	0
3	141234	34.01	0
3	141658	34.11	0
3	142091	34.21	0
3	142524	34.31	0
3	142957	34.41	0
3	143390	34.51	0
3	143823	34.61	0
3	144250	34.71	0
3	144683	34.81	0
3	145113	34.91	0
3	145538	35.01	0
3	145965	35.11	0
3	146395	35.21	0
3	146816	35.31	0
3	147243	35.41	0
3	147667	35.51	0
3	148079	35.61	0
3	148512	35.71	0
3	148945	35.81	0
3	149369	35.91	0
3	149809	36.01	0
3	150239	36.11	0
3	150672	36.21	0
3	151099	36.31	0
3	151532	36.41	0
3	151924	36.51	0
3	152336	36.61	0
3	152757	36.71	0
3	153142	36.81	0
3	153560	36.91	0
3	154000	37.01	0
3	154433	37.11	0
3	154866	37.21	0
3	155290	37.31	0
3	155711	37.41	0
3	156132	37.51	0
3	156553	37.61	0
3	156980	37.71	0
3	157413	37.81	0
3	157840	37.91	0
3	158271	38.01	0
3	158662	38.11	0
3	159092	38.21	0
3	159525	38.31	0
3	159958	38.41	0
3	160382	38.51	0
3	160809	38.61	0
3	161236	38.71	0
3	161663	38.81	0
3	162084	38.91	0
3	162524	39.01	0
3	162915	39.11	0
3	163348	39.21	0
3	163781	39.31	0
3	164202	39.41	0
3	164626	39.51	0
3	165059	39.61	0
3	165486	39.71	0
3	165913	39.81	0
3	166340	39.91	0
3	166780	40.01	0
3	167204	40.11	0
3	167619	40.21	0
3	168049	40.31	0
3	168443	40.41	0
3	168876	40.51	0
3	169303	40.61	0
3	169736	40.71	0
3	170166	40.81	0
3	170599	40.91	0
3	171033	41.01	0
3	171466	41.11	0
3	171893	41.21	0
3	172287	41.31	0
3	172720	41.41	0
3	173153	41.51	0
3	173580	41.61	0
3	174007	41.71	0
3	174434	41.81	0
3	174861	41.91	0
3	175301	42.01	0
3	175734	42.11	0
3	176155	42.21	0
3	176585	42.31	0
3	177018	42.41	0
3	177451	42.51	0
3	177845	42.61	0
3	178272	42.71	0
3	178693	42.81	0
3	179117	42.91	0
3	179548	43.01	0
3	179978	43.11	0
3	180408	43.21	0
3	180838	43.31	0
3	181271	43.41	0
3	181695	43.51	0
3	182119	43.61	0
3	182534	43.71	0
3	182961	43.81	0
3	183385	43.91	0
3	183810	44.01	0
3	184243	44.11	0
3	184676	44.21	0
3	185109	44.31	0
3	185542	44.41	0
3	185972	44.51	0
3	186402	44.61	0
3	186829	44.71	0
3	187259	44.81	0
3	187680	44.91	0
3	188117	45.01	0
3	188541	45.11	0
3	188968	45.21	0
3	189401	45.31	0
3	189834	45.41	0
3	190261	45.51	0
3	190679	45.61	0
3	191106	45.71	0
3	191533	45.81	0
3	191963	45.91	0
3	192397	46.01	0
3	192830	46.11	0
3	193257	46.21	0
3	193684	46.31	0
3	194114	46.41	0
3	194547	46.51	0
3	194980	46.61	0
3	195407	46.71	0
3	195831	46.81	0
3	196255	46.91	0
3	196683	47.01	0
3	197116	47.11	0
3	197546	47.21	0
3	197979	47.31	0
3	198403	47.41	0
3	198830	47.51	0
3	199263	47.61	0
3	199693	47.71	0
3	200120	47.81	0
3	200547	47.91	0
3	200981	48.01	0
3	201393	48.11	0
3	201826	48.21	0
3	202253	48.31	0
3	202674	48.41	0
3	203092	48.51	0
3	203519	48.61	0
3	203952	48.71	0
3	204385	48.81	0
3	204809	48.91	0
3	205249	49.01	0
3	205679	49.11	0
3	206112	49.21	0
3	206503	49.31	0
3	206933	49.41	0
3	207360	49.51	0
3	207793	49.61	0
3	208220	49.71	0
3	208650	49.81	0
3	209077	49.91	0
3	209503	50.01	0
3	1725319	50.11	0
3	3307839	50.21	0
3	4887109	50.31	0
3	6468005	50.41	0
3	8066504	50.51	0
3	9633374	50.61	0
3	11223058	50.71	0
3	12809955	50.81	0
3	14388966	50.91	0
3	15969661	51.01	0
3	17531358	51.11	0
3	19125717	51.21	0
3	20709198	51.31	0
3	22288365	51.41	0
3	23868412	51.51	0
3	25461875	51.61	0
3	27034424	51.71	0
3	28615351	51.81	0
3	30201592	51.91	0
3	31775266	52.01	0
3	33367706	52.11	0
3	34948376	52.21	0
3	36531581	52.31	0
3	38104494	52.41	0
3	39692408	52.51	0
3	41268740	52.61	0
3	42850792	52.71	0
3	44431964	52.81	0
3	46016615	52.91	0
3	47594403	53.01	0
3	49172955	53.11	0
3	50755240	53.21	0
3	52350339	53.31	0
3	53924710	53.41	0
3	55511017	53.51	0
3	57099345	53.61	0
3	58663601	53.71	0
3	60256949	53.81	0
3	61836179	53.91	0
3	63426474	54.01	0
3	65014372	54.11	0
3	66582109	54.21	0
3	68171449	54.31	0
3	69757428	54.41	0
3	71337383	54.51	0
3	72916926	54.61	0
3	74486606	54.71	0
3	76072872	54.81	0
3	77652848	54.91	0
3	79233822	55.01	0
3	80820779	55.11	0
3	82395883	55.21	0
3	83982413	55.31	0
3	85553515	55.41	0
3	87135795	55.51	0
3	88715326	55.61	0
3	90295252	55.71	0
3	91878581	55.81	0
3	93458560	55.91	0
3	95054041	56.01	0
3	96625493	56.11	0
3	98191969	56.21	0
3	99780729	56.31	0
3	101358879	56.41	0
3	102927335	56.51	0
3	104525213	56.61	0
3	106106487	56.71	0
3	107682184	56.81	0
3	109275271	56.91	0
3	110859074	57.01	0
3	112434961	57.11	0
3	114023661	57.21	0
3	115596123	57.31	0
3	117177979	57.41	0
3	118773203	57.51	0
3	120348969	57.61	0
3	121927550	57.71	0
3	123506618	57.81	0
3	125102404	57.91	0
3	126684430	58.01	0
3	128256468	58.11	0
3	129840238	58.21	0
3	131430114	58.31	0
3	132995802	58.41	0
3	134576505	58.51	0
3	136168381	58.61	0
3	137747054	58.71	0
3	139334137	58.81	0
3	140909276	58.91	0
3	142487969	59.01	0
3	144066161	59.11	0
3	145645437	59.21	0
3	147231373	59.31	0
3	148817130	59.41	0
3	150398768	59.51	0
3	151972666	59.61	0
3	153558193	59.71	0
3	155132811	59.81	0
3	156713208	59.91	0
3	158290688	60.01	-0.156863
3	159871809	60.11	-1.5659
3	161454363	60.21	-2.72179
3	163045359	60.31	-3.67003
3	164628676	60.41	-4.44792
3	166201921	60.51	-5.08606
3	167796974	60.61	-5.60955
3	169367360	60.71	-6.039
3	170954430	60.81	-6.3913
3	172528478	60.91	-6.6803
3	174122710	61.01	-6.91739
3	175697174	61.11	-7.11188
3	177288162	61.21	-7.27143
3	178869326	61.31	-7.40232
3	180454111	61.41	-7.5097
3	182034363	61.51	-7.59778
3	183610137	61.61	-7.67004
3	185192739	61.71	-7.72932
3	186774498	61.81	-7.77795
3	188357660	61.91	-7.81784
3	189955215	62.01	-7.85056
3	191527548	62.11	-7.87741
3	193107990	62.21	-7.89943
3	194701529	62.31	-7.9175
3	196284639	62.41	-7.93232
3	197869482	62.51	-7.94448
3	199448727	62.61	-7.95445
3	201032367	62.71	-7.96264
3	202617776	62.81	-7.96935
3	204199451	62.91	-7.97486
3	205778966	63.01	-7.97937
3	207349378	63.11	-7.98308
3	208932168	63.21	-7.98612
3	210521261	63.31	-7.98861
3	212094488	63.41	-7.99066
3	213683989	63.51	-7.99234
3	215270414	63.61	-7.99371
3	216841233	63.71	-7.99484
3	218440256	63.81	-7.99577
3	220010301	63.91	-7.99653
3	221597479	64.01	0
3	223179033	64.11	0
3	224756721	64.21	0
3	226336757	64.31	0
3	227923378	64.41	0
3	229499687	64.51	0
3	231081319	64.61	0
3	232667924	64.71	0
3	234246806	64.81	0
3	235830825	64.91	0
3	237403318	65.01	0
3	238984106	65.11	0
3	240561986	65.21	0
3	242142378	65.31	0
3	243720566	65.41	0
3	245315775	65.51	0
3	246899272	65.61	0
3	248476990	65.71	0
3	250034097	65.81	0
3	251646375	65.91	0
3	253211085	66.01	0
3	254796649	66.11	0
3	256389317	66.21	0
3	257953888	66.31	0
3	259553077	66.41	0
3	261123243	66.51	0
3	262715739	66.61	0
3	264297890	66.71	0
3	265878116	66.81	0
3	267453367	66.91	0
3	269040905	67.01	0
3	270621605	67.11	0
3	272208100	67.21	0
3	273792296	67.31	0
3	275359709	67.41	0
3	276940256	67.51	0
3	278529973	67.61	0
3	280105474	67.71	0
3	281692437	67.81	0
3	283281677	67.91	0
3	284843180	68.01	0
3	286440026	68.11	0
3	288013903	68.21	0
3	289592977	68.31	0
3	291178457	68.41	0
3	292761720	68.51	0
3	294332670	68.61	0
3	295918305	68.71	0
3	297504336	68.81	0
3	299073319	68.91	0
3	300666991	69.01	0
3	302236146	69.11	0
3	303818616	69.21	0
3	305406697	69.31	0
3	306985778	69.41	0
3	308556233	69.51	0
3	310134564	69.61	0
3	311718737	69.71	0
3	313299649	69.81	0
3	314884620	69.91	0
7	232	1.11	242.45
7	662	1.21	242.45
7	1096	1.31	242.45
7	1524	1.41	242.45
7	1958	1.51	242.45
7	2388	1.61	242.45
7	2821	1.71	242.45
7	3256	1.81	242.45
7	3689	1.91	242.45
7	4121	2.01	242.45
7	4551	2.11	242.45
7	4978	2.21	242.45
7	5411	2.31	242.45
7	5838	2.41	242.45
7	6271	2.51	242.45
7	6704	2.61	242.45
7	7137	2.71	242.45
7	7570	2.81	242.45
7	8003	2.91	242.45
7	8431	3.01	242.45
7	8864	3.11	242.45
7	9297	3.21	242.45
7	9724	3.31	242.45
7	10148	3.41	242.45
7	10575	3.51	242.45
7	10993	3.61	242.45
7	11426	3.71	242.45
7	11859	3.81	242.45
7	12253	3.91	242.45
7	12690	4.01	242.45
7	13117	4.11	242.45
7	13550	4.21	242.45
7	13983	4.31	242.45
7	14353	4.41	242.45
7	14771	4.51	242.45
7	15201	4.61	242.45
7	15634	4.71	242.45
7	16061	4.81	242.45
7	16488	4.91	242.45
7	16925	5.01	242.45
7	17358	5.11	242.45
7	17791	5.21	242.45
7	18224	5.31	242.45
7	18654	5.41	242.45
7	19087	5.51	242.45
7	19517	5.61	242.45
7	19944	5.71	242.45
7	20377	5.81	242.45
7	20804	5.91	242.45
7	21244	6.01	242.45
7	21671	6.11	242.45
7	22104	6.21	242.45
7	22537	6.31	242.45
7	22964	6.41	242.45
7	23397	6.51	242.45
7	23818	6.61	242.45
7	24245	6.71	242.45
7	24678	6.81	242.45
7	25105	6.91	242.45
7	25542	7.01	242.45
7	25966	7.11	242.45
7	26396	7.21	242.45
7	26817	7.31	242.45
7	27247	7.41	242.45
7	27680	7.51	242.45
7	28113	7.61	242.45
7	28540	7.71	242.45
7	28967	7.81	242.45
7	29400	7.91	242.45
7	29840	8.01	242.45
7	30255	8.11	242.45
7	30688	8.21	242.45
7	31085	8.31	242.45
7	31509	8.41	242.45
7	31942	8.51	242.45
7	32372	8.61	242.45
7	32805	8.71	242.45
7	33238	8.81	242.45
7	33671	8.91	242.45
7	34111	9.01	242.45
7	34538	9.11	242.45
7	34965	9.21	242.45
7	35398	9.31	242.45
7	35831	9.41	242.45
7	36261	9.51	242.45
7	36691	9.61	242.45
7	37124	9.71	242.45
7	37551	9.81	242.45
7	37978	9.91	242.45
7	38373	10.01	242.45
7	38788	10.11	242.45
7	39221	10.21	242.45
7	39654	10.31	242.45
7	40087	10.41	242.45
7	40520	10.51	242.45
7	40944	10.61	242.45
7	41377	10.71	242.45
7	41804	10.81	242.45
7	42231	10.91	242.45
7	42668	11.01	242.45
7	43083	11.11	242.45
7	43507	11.21	242.45
7	43940	11.31	242.45
7	44367	11.41	242.45
7	44800	11.51	242.45
7	45230	11.61	242.45
7	45657	11.71	242.45
7	46090	11.81	242.45
7	46514	11.91	242.45
7	46948	12.01	242.45
7	47369	12.11	242.45
7	47787	12.21	242.45
7	48220	12.31	242.45
7	48647	12.41	242.45
7	49074	12.51	242.45
7	49507	12.61	242.45
7	49940	12.71	242.45
7	50373	12.81	242.45
7	50803	12.91	242.45
7	51234	13.01	242.45
7	51658	13.11	242.45
7	52085	13.21	242.45
7	52518	13.31	242.45
7	52945	13.41	242.45
7	53372	13.51	242.45
7	53799	13.61	242.45
7	54226	13.71	242.45
7	54656	13.81	242.45
7	55089	13.91	242.45
7	55529	14.01	242.45
7	55959	14.11	242.45
7	56389	14.21	242.45
7	56822	14.31	242.45
7	57249	14.41	242.45
7	57682	14.51	242.45
7	58109	14.61	242.45
7	58542	14.71	242.45
7	58969	14.81	242.45
7	59399	14.91	242.45
7	59833	15.01	242.45
7	60266	15.11	242.45
7	60693	15.21	242.45
7	61120	15.31	242.45
7	61553	15.41	242.45
7	61986	15.51	242.45
7	62410	15.61	242.45
7	62843	15.71	242.45
7	63276	15.81	242.45
7	63697	15.91	242.45
7	64134	16.01	242.45
7	64558	16.11	242.45
7	64988	16.21	242.45
7	65418	16.31	242.45
7	65818	16.41	242.45
7	66251	16.51	242.45
7	66681	16.61	242.45
7	67108	16.71	242.45
7	67532	16.81	242.45
7	67965	16.91	242.45
7	68399	17.01	242.45
7	68820	17.11	242.45
7	69247	17.21	242.45
7	69674	17.31	242.45
7	70107	17.41	242.45
7	70498	17.51	242.45
7	70931	17.61	242.45
7	71358	17.71	242.45
7	71779	17.81	242.45
7	72212	17.91	242.45
7	72646	18.01	242.45
7	73064	18.11	242.45
7	73497	18.21	242.45
7	73924	18.31	242.45
7	74354	18.41	242.45
7	74787	18.51	242.45
7	75217	18.61	242.45
7	75644	18.71	242.45
7	76074	18.81	242.45
7	76501	18.91	242.45
7	76941	19.01	242.45
7	77362	19.11	242.45
7	77792	19.21	242.45
7	78219	19.31	242.45
7	78652	19.41	242.45
7	79085	19.51	242.45
7	79518	19.61	242.45
7	79915	19.71	242.45
7	80321	19.81	242.45
7	80754	19.91	242.45
7	81185	20.01	242.45
7	81618	20.11	242.45
7	82051	20.21	242.45
7	82484	20.31	242.45
7	82911	20.41	242.45
7	83338	20.51	242.45
7	83771	20.61	242.45
7	84198	20.71	242.45
7	84622	20.81	242.45
7	85052	20.91	242.45
7	85489	21.01	242.45
7	85922	21.11	242.45
7	86355	21.21	242.45
7	86788	21.31	242.45
7	87221	21.41	242.45
7	87651	21.51	242.45
7	88084	21.61	242.45
7	88511	21.71	242.45
7	88944	21.81	242.45
7	89344	21.91	242.45
7	89784	22.01	242.45
7	90217	22.11	242.45
7	90650	22.21	242.45
7	91077	22.31	242.45
7	91510	22.41	242.45
7	91934	22.51	242.45
7	92364	22.61	242.45
7	92791	22.71	242.45
7	93224	22.81	242.45
7	93639	22.91	242.45
7	94070	23.01	242.45
7	94497	23.11	242.45
7	94924	23.21	242.45
7	95357	23.31	242.45
7	95790	23.41	242.45
7	96184	23.51	242.45
7	96608	23.61	242.45
7	97041	23.71	242.45
7	97471	23.81	242.45
7	97889	23.91	242.45
7	98326	24.01	242.45
7	98750	24.11	242.45
7	99174	24.21	242.45
7	99607	24.31	242.45
7	100034	24.41	242.45
7	100467	24.51	242.45
7	100900	24.61	242.45
7	101324	24.71	242.45
7	101748	24.81	242.45
7	102175	24.91	242.45
7	102612	25.01	242.45
7	103045	25.11	242.45
7	103469	25.21	242.45
7	103902	25.31	242.45
7	104332	25.41	242.45
7	104765	25.51	242.45
7	105198	25.61	242.45
7	105625	25.71	242.45
7	106058	25.81	242.45
7	106488	25.91	242.45
7	106928	26.01	242.45
7	107349	26.11	242.45
7	107770	26.21	242.45
7	108197	26.31	242.45
7	108621	26.41	242.45
7	109048	26.51	242.45
7	109478	26.61	242.45
7	109902	26.71	242.45
7	110335	26.81	242.45
7	110768	26.91	242.45
7	111205	27.01	242.45
7	111632	27.11	242.45
7	112065	27.21	242.45
7	112498	27.31	242.45
7	112922	27.41	242.45
7	113355	27.51	242.45
7	113788	27.61	242.45
7	114203	27.71	242.45
7	114633	27.81	242.45
7	115066	27.91	242.45
7	115500	28.01	242.45
7	115921	28.11	242.45
7	116354	28.21	242.45
7	116784	28.31	242.45
7	117217	28.41	242.45
7	117647	28.51	242.45
7	118074	28.61	242.45
7	118507	28.71	242.45
7	118934	28.81	242.45
7	119328	28.91	242.45
7	119768	29.01	242.45
7	120198	29.11	242.45
7	120622	29.21	242.45
7	121052	29.31	242.45
7	121485	29.41	242.45
7	121918	29.51	242.45
7	122345	29.61	242.45
7	122778	29.71	242.45
7	123205	29.81	242.45
7	123629	29.91	242.45
7	124063	30.01	242.45
7	124493	30.11	242.45
7	124917	30.21	242.45
7	125341	30.31	242.45
7	125762	30.41	242.45
7	126192	30.51	242.45
7	126619	30.61	242.45
7	127052	30.71	242.45
7	127485	30.81	242.45
7	127918	30.91	242.45
7	128346	31.01	242.45
7	128773	31.11	242.45
7	129206	31.21	242.45
7	129639	31.31	242.45
7	130066	31.41	242.45
7	130487	31.51	242.45
7	130914	31.61	242.45
7	131344	31.71	242.45
7	131777	31.81	242.45
7	132201	31.91	242.45
7	132638	32.01	242.45
7	133068	32.11	242.45
7	133501	32.21	242.45
7	133925	32.31	242.45
7	134355	32.41	242.45
7	134788	32.51	242.45
7	135215	32.61	242.45
7	135639	32.71	242.45
7	136066	32.81	242.45
7	136499	32.91	242.45
7	136933	33.01	242.45
7	137366	33.11	242.45
7	137799	33.21	242.45
7	138232	33.31	242.45
7	138653	33.41	242.45
7	139086	33.51	242.45
7	139516	33.61	242.45
7	139949	33.71	242.45
7	140373	33.81	242.45
7	140794	33.91	242.45
7	141234	34.01	242.45
7	141658	34.11	242.45
7	142091	34.21	242.45
7	142524	34.31	242.45
7	142957	34.41	242.45
7	143390	34.51	242.45
7	143823	34.61	242.45
7	144250	34.71	242.45
7	144683	34.81	242.45
7	145113	34.91	242.45
7	145538	35.01	242.45
7	145965	35.11	242.45
7	146395	35.21	242.45
7	146816	35.31	242.45
7	147243	35.41	242.45
7	147667	35.51	242.45
7	148079	35.61	242.45
7	148512	35.71	242.45
7	148945	35.81	242.45
7	149369	35.91	242.45
7	149809	36.01	242.45
7	150239	36.11	242.45
7	150672	36.21	242.45
7	151099	36.31	242.45
7	151532	36.41	242.45
7	151924	36.51	242.45
7	152336	36.61	242.45
7	152757	36.71	242.45
7	153142	36.81	242.45
7	153560	36.91	242.45
7	154000	37.01	242.45
7	154433	37.11	242.45
7	154866	37.21	242.45
7	155290	37.31	242.45
7	155711	37.41	242.45
7	156132	37.51	242.45
7	156553	37.61	242.45
7	156980	37.71	242.45
7	157413	37.81	242.45
7	157840	37.91	242.45
7	158271	38.01	242.45
7	158662	38.11	242.45
7	159092	38.21	242.45
7	159525	38.31	242.45
7	159958	38.41	242.45
7	160382	38.51	242.45
7	160809	38.61	242.45
7	161236	38.71	242.45
7	161663	38.81	242.45
7	162084	38.91	242.45
7	162524	39.01	242.45
7	162915	39.11	242.45
7	163348	39.21	242.45
7	163781	39.31	242.45
7	164202	39.41	242.45
7	164626	39.51	242.45
7	165059	39.61	242.45
7	165486	39.71	242.45
7	165913	39.81	242.45
7	166340	39.91	242.45
7	166780	40.01	242.45
7	167204	40.11	242.45
7	167619	40.21	242.45
7	168049	40.31	242.45
7	168443	40.41	242.45
7	168876	40.51	242.45
7	169303	40.61	242.45
7	169736	40.71	242.45
7	170166	40.81	242.45
7	170599	40.91	242.45
7	171033	41.01	242.45
7	171466	41.11	242.45
7	171893	41.21	242.45
7	172287	41.31	242.45
7	172720	41.41	242.45
7	173153	41.51	242.45
7	173580	41.61	242.45
7	174007	41.71	242.45
7	174434	41.81	242.45
7	174861	41.91	242.45
7	175301	42.01	242.45
7	175734	42.11	242.45
7	176155	42.21	242.45
7	176585	42.31	242.45
7	177018	42.41	242.45
7	177451	42.51	242.45
7	177845	42.61	242.45
7	178272	42.71	242.45
7	178693	42.81	242.45
7	179117	42.91	242.45
7	179548	43.01	242.45
7	179978	43.11	242.45
7	180408	43.21	242.45
7	180838	43.31	242.45
7	181271	43.41	242.45
7	181695	43.51	242.45
7	182119	43.61	242.45
7	182534	43.71	242.45
7	182961	43.81	242.45
7	183385	43.91	242.45
7	183810	44.01	242.45
7	184243	44.11	242.45
7	184676	44.21	242.45
7	185109	44.31	242.45
7	185542	44.41	242.45
7	185972	44.51	242.45
7	186402	44.61	242.45
7	186829	44.71	242.45
7	187259	44.81	242.45
7	187680	44.91	242.45
7	188117	45.01	242.45
7	188541	45.11	242.45
7	188968	45.21	242.45
7	189401	45.31	242.45
7	189834	45.41	242.45
7	190261	45.51	242.45
7	190679	45.61	242.45
7	191106	45.71	242.45
7	191533	45.81	242.45
7	191963	45.91	242.45
7	192397	46.01	242.45
7	192830	46.11	242.45
7	193257	46.21	242.45
7	193684	46.31	242.45
7	194114	46.41	242.45
7	194547	46.51	242.45
7	194980	46.61	242.45
7	195407	46.71	242.45
7	195831	46.81	242.45
7	196255	46.91	242.45
7	196683	47.01	242.45
7	197116	47.11	242.45
7	197546	47.21	242.45
7	197979	47.31	242.45
7	198403	47.41	242.45
7	198830	47.51	242.45
7	199263	47.61	242.45
7	199693	47.71	242.45
7	200120	47.81	242.45
7	200547	47.91	242.45
7	200981	48.01	242.45
7	201393	48.11	242.45
7	201826	48.21	242.45
7	202253	48.31	242.45
7	202674	48.41	242.45
7	203092	48.51	242.45
7	203519	48.61	242.45
7	203952	48.71	242.45
7	204385	48.81	242.45
7	204809	48.91	242.45
7	205249	49.01	242.45
7	205679	49.11	242.45
7	206112	49.21	242.45
7	206503	49.31	242.45
7	206933	49.41	242.45
7	207360	49.51	242.45
7	207793	49.61	242.45
7	208220	49.71	242.45
7	208650	49.81	242.45
7	209077	49.91	242.45
7	209503	50.01	242.45
7	1725319	50.11	242.45
7	3307839	50.21	242.45
7	4887109	50.31	242.45
7	6468005	50.41	242.45
7	8066504	50.51	242.45
7	9633374	50.61	242.45
7	11223058	50.71	242.45
7	12809955	50.81	242.45
7	14388966	50.91	242.45
7	15969661	51.01	242.45
7	17531358	51.11	242.45
7	19125717	51.21	242.45
7	20709198	51.31	242.45
7	22288365	51.41	242.45
7	23868412	51.51	242.45
7	25461875	51.61	242.45
7	27034424	51.71	242.45
7	28615351	51.81	242.45
7	30201592	51.91	242.45
7	31775266	52.01	242.45
7	33367706	52.11	242.45
7	34948376	52.21	242.45
7	36531581	52.31	242.45
7	38104494	52.41	242.45
7	39692408	52.51	242.45
7	41268740	52.61	242.45
7	42850792	52.71	242.45
7	44431964	52.81	242.45
7	46016615	52.91	242.45
7	47594403	53.01	242.45
7	49172955	53.11	242.45
7	50755240	53.21	242.45
7	52350339	53.31	242.45
7	53924710	53.41	242.45
7	55511017	53.51	242.45
7	57099345	53.61	242.45
7	58663601	53.71	242.45
7	60256949	53.81	242.45
7	61836179	53.91	242.45
7	63426474	54.01	242.45
7	65014372	54.11	242.45
7	66582109	54.21	242.45
7	68171449	54.31	242.45
7	69757428	54.41	242.45
7	71337383	54.51	242.45
7	72916926	54.61	242.45
7	74486606	54.71	242.45
7	76072872	54.81	242.45
7	77652848	54.91	242.45
7	79233822	55.01	242.45
7	80820779	55.11	242.45
7	82395883	55.21	242.45
7	83982413	55.31	242.45
7	85553515	55.41	242.45
7	87135795	55.51	242.45
7	88715326	55.61	242.45
7	90295252	55.71	242.45
7	91878581	55.81	242.45
7	93458560	55.91	242.45
7	95054041	56.01	242.45
7	96625493	56.11	242.45
7	98191969	56.21	242.45
7	99780729	56.31	242.45
7	101358879	56.41	242.45
7	102927335	56.51	242.45
7	104525213	56.61	242.45
7	106106487	56.71	242.45
7	107682184	56.81	242.45
7	109275271	56.91	242.45
7	110859074	57.01	242.45
7	112434961	57.11	242.45
7	114023661	57.21	242.45
7	115596123	57.31	242.45
7	117177979	57.41	242.45
7	118773203	57.51	242.45
7	120348969	57.61	242.45
7	121927550	57.71	242.45
7	123506618	57.81	242.45
7	125102404	57.91	242.45
7	126684430	58.01	242.45
7	128256468	58.11	242.45
7	129840238	58.21	242.45
7	131430114	58.31	242.45
7	132995802	58.41	242.45
7	134576505	58.51	242.45
7	136168381	58.61	242.45
7	137747054	58.71	242.45
7	139334137	58.81	242.45
7	140909276	58.91	242.45
7	142487969	59.01	242.45
7	144066161	59.11	242.45
7	145645437	59.21	242.45
7	147231373	59.31	242.45
7	148817130	59.41	242.45
7	150398768	59.51	242.45
7	151972666	59.61	242.45
7	153558193	59.71	242.45
7	155132811	59.81	242.45
7	156713208	59.91	242.45
7	158290688	60.01	242.45
7	159871809	60.11	242.45
7	161454363	60.21	242.45
7	163045359	60.31	242.45
7	164628676	60.41	242.45
7	166201921	60.51	242.45
7	167796974	60.61	242.45
7	169367360	60.71	242.45
7	170954430	60.81	242.45
7	172528478	60.91	242.45
7	174122710	61.01	242.45
7	175697174	61.11	242.45
7	177288162	61.21	242.45
7	178869326	61.31	242.45
7	180454111	61.41	242.45
7	182034363	61.51	242.45
7	183610137	61.61	242.45
7	185192739	61.71	242.45
7	186774498	61.81	242.45
7	188357660	61.91	242.45
7	189955215	62.01	242.45
7	191527548	62.11	242.45
7	193107990	62.21	242.45
7	194701529	62.31	242.45
7	196284639	62.41	242.45
7	197869482	62.51	242.45
7	199448727	62.61	242.45
7	201032367	62.71	242.45
7	202617776	62.81	242.45
7	204199451	62.91	242.45
7	205778966	63.01	242.45
7	207349378	63.11	242.45
7	208932168	63.21	242.45
7	210521261	63.31	242.45
7	212094488	63.41	242.45
7	213683989	63.51	242.45
7	215270414	63.61	242.45
7	216841233	63.71	242.45
7	218440256	63.81	242.45
7	220010301	63.91	242.45
7	221597479	64.01	242.45
7	223179033	64.11	242.45
7	224756721	64.21	242.45
7	226336757	64.31	242.45
7	227923378	64.41	242.45
7	229499687	64.51	242.45
7	231081319	64.61	242.45
7	232667924	64.71	242.45
7	234246806	64.81	242.45
7	235830825	64.91	242.45
7	237403318	65.01	242.45
7	238984106	65.11	242.45
7	240561986	65.21	242.45
7	242142378	65.31	242.45
7	243720566	65.41	242.45
7	245315775	65.51	242.45
7	246899272	65.61	242.45
7	248476990	65.71	242.45
7	250034097	65.81	242.45
7	251646375	65.91	242.45
7	253211085	66.01	242.45
7	254796649	66.11	242.45
7	256389317	66.21	242.45
7	257953888	66.31	242.45
7	259553077	66.41	242.45
7	261123243	66.51	242.45
7	262715739	66.61	242.45
7	264297890	66.71	242.45
7	265878116	66.81	242.45
7	267453367	66.91	242.45
7	269040905	67.01	242.45
7	270621605	67.11	242.45
7	272208100	67.21	242.45
7	273792296	67.31	242.45
7	275359709	67.41	242.45
7	276940256	67.51	242.45
7	278529973	67.61	242.45
7	280105474	67.71	242.45
7	281692437	67.81	242.45
7	283281677	67.91	242.45
7	284843180	68.01	242.45
7	286440026	68.11	242.45
7	288013903	68.21	242.45
7	289592977	68.31	242.45
7	291178457	68.41	242.45
7	292761720	68.51	242.45
7	294332670	68.61	242.45
7	295918305	68.71	242.45
7	297504336	68.81	242.45
7	299073319	68.91	242.45
7	300666991	69.01	242.45
7	302236146	69.11	242.45
7	303818616	69.21	242.45
7	305406697	69.31	242.45
7	306985778	69.41	242.45
7	308556233	69.51	242.45
7	310134564	69.61	242.45
7	311718737	69.71	242.45
7	313299649	69.81	242.45
7	314884620	69.91	242.45
6	232	1.11	52.1102
6	662	1.21	54.8882
6	1096	1.31	57.6662
6	1524	1.41	60.4442
6	1958	1.51	63.2221
6	2388	1.61	66.0001
6	2821	1.71	68.778
6	3256	1.81	71.556
6	3689	1.91	74.3339
6	4121	2.01	77.1118
6	4551	2.11	79.8897
6	4978	2.21	82.6675
6	5411	2.31	85.4454
6	5838	2.41	88.2232
6	6271	2.51	91.0011
6	6704	2.61	93.7789
6	7137	2.71	96.5567
6	7570	2.81	99.3345
6	8003	2.91	102.112
6	8431	3.01	104.89
6	8864	3.11	107.668
6	9297	3.21	110.446
6	9724	3.31	113.224
6	10148	3.41	116.001
6	10575	3.51	118.779
6	10993	3.61	121.557
6	11426	3.71	124.335
6	11859	3.81	127.112
6	12253	3.91	129.89
6	12690	4.01	132.668
6	13117	4.11	135.446
6	13550	4.21	138.223
6	13983	4.31	141.001
6	14353	4.41	143.779
6	14771	4.51	146.557
6	15201	4.61	149.335
6	15634	4.71	152.112
6	16061	4.81	154.89
6	16488	4.91	157.668
6	16925	5.01	160.446
6	17358	5.11	163.223
6	17791	5.21	166.001
6	18224	5.31	168.779
6	18654	5.41	171.557
6	19087	5.51	174.335
6	19517	5.61	177.112
6	19944	5.71	179.89
6	20377	5.81	182.668
6	20804	5.91	185.446
6	21244	6.01	188.223
6	21671	6.11	191.001
6	22104	6.21	193.779
6	22537	6.31	196.557
6	22964	6.41	199.335
6	23397	6.51	202.112
6	23818	6.61	204.89
6	24245	6.71	207.668
6	24678	6.81	210.446
6	25105	6.91	213.223
6	25542	7.01	216.001
6	25966	7.11	218.779
6	26396	7.21	221.557
6	26817	7.31	224.335
6	27247	7.41	227.112
6	27680	7.51	229.89
6	28113	7.61	232.668
6	28540	7.71	235.446
6	28967	7.81	238.223
6	29400	7.91	241.001
6	29840	8.01	243.779
6	30255	8.11	246.557
6	30688	8.21	249.335
6	31085	8.31	252.112
6	31509	8.41	254.89
6	31942	8.51	257.668
6	32372	8.61	260.446
6	32805	8.71	263.223
6	33238	8.81	266.001
6	33671	8.91	268.779
6	34111	9.01	271.557
6	34538	9.11	274.335
6	34965	9.21	277.112
6	35398	9.31	279.89
6	35831	9.41	282.668
6	36261	9.51	285.446
6	36691	9.61	288.223
6	37124	9.71	291.001
6	37551	9.81	293.779
6	37978	9.91	296.557
6	38373	10.01	299.335
6	38788	10.11	302.112
6	39221	10.21	304.89
6	39654	10.31	307.668
6	40087	10.41	310.446
6	40520	10.51	313.224
6	40944	10.61	316.001
6	41377	10.71	318.779
6	41804	10.81	321.557
6	42231	10.91	324.335
6	42668	11.01	327.112
6	43083	11.11	329.89
6	43507	11.21	332.668
6	43940	11.31	335.446
6	44367	11.41	338.224
6	44800	11.51	341.001
6	45230	11.61	343.779
6	45657	11.71	346.557
6	46090	11.81	349.335
6	46514	11.91	352.112
6	46948	12.01	354.89
6	47369	12.11	357.668
6	47787	12.21	360.446
6	48220	12.31	363.224
6	48647	12.41	366.001
6	49074	12.51	368.779
6	49507	12.61	371.557
6	49940	12.71	374.335
6	50373	12.81	377.112
6	50803	12.91	379.89
6	51234	13.01	382.668
6	51658	13.11	385.446
6	52085	13.21	388.224
6	52518	13.31	391.001
6	52945	13.41	393.779
6	53372	13.51	396.557
6	53799	13.61	399.335
6	54226	13.71	402.112
6	54656	13.81	404.89
6	55089	13.91	407.668
6	55529	14.01	410.446
6	55959	14.11	413.224
6	56389	14.21	416.001
6	56822	14.31	418.779
6	57249	14.41	421.557
6	57682	14.51	424.335
6	58109	14.61	427.112
6	58542	14.71	429.89
6	58969	14.81	432.668
6	59399	14.91	435.446
6	59833	15.01	438.224
6	60266	15.11	441.001
6	60693	15.21	443.779
6	61120	15.31	446.557
6	61553	15.41	449.335
6	61986	15.51	452.113
6	62410	15.61	454.89
6	62843	15.71	457.668
6	63276	15.81	460.446
6	63697	15.91	463.224
6	64134	16.01	466.001
6	64558	16.11	468.779
6	64988	16.21	471.557
6	65418	16.31	474.335
6	65818	16.41	477.113
6	66251	16.51	479.89
6	66681	16.61	482.668
6	67108	16.71	485.446
6	67532	16.81	488.224
6	67965	16.91	491.001
6	68399	17.01	493.779
6	68820	17.11	496.557
6	69247	17.21	499.335
6	69674	17.31	502.113
6	70107	17.41	504.89
6	70498	17.51	507.668
6	70931	17.61	510.446
6	71358	17.71	513.224
6	71779	17.81	516.001
6	72212	17.91	518.779
6	72646	18.01	521.557
6	73064	18.11	524.335
6	73497	18.21	527.113
6	73924	18.31	529.89
6	74354	18.41	532.668
6	74787	18.51	535.446
6	75217	18.61	538.224
6	75644	18.71	541.001
6	76074	18.81	543.779
6	76501	18.91	546.557
6	76941	19.01	549.335
6	77362	19.11	552.113
6	77792	19.21	554.89
6	78219	19.31	557.668
6	78652	19.41	560.446
6	79085	19.51	563.224
6	79518	19.61	566.001
6	79915	19.71	568.779
6	80321	19.81	571.557
6	80754	19.91	574.335
6	81185	20.01	577.113
6	81618	20.11	579.89
6	82051	20.21	582.668
6	82484	20.31	585.446
6	82911	20.41	588.224
6	83338	20.51	591.002
6	83771	20.61	593.779
6	84198	20.71	596.557
6	84622	20.81	599.335
6	85052	20.91	602.113
6	85489	21.01	604.89
6	85922	21.11	607.668
6	86355	21.21	610.446
6	86788	21.31	613.224
6	87221	21.41	616.002
6	87651	21.51	618.779
6	88084	21.61	621.557
6	88511	21.71	624.335
6	88944	21.81	627.113
6	89344	21.91	629.89
6	89784	22.01	632.668
6	90217	22.11	635.446
6	90650	22.21	638.224
6	91077	22.31	641.002
6	91510	22.41	643.779
6	91934	22.51	646.557
6	92364	22.61	649.335
6	92791	22.71	652.113
6	93224	22.81	654.89
6	93639	22.91	657.668
6	94070	23.01	660.446
6	94497	23.11	663.224
6	94924	23.21	666.002
6	95357	23.31	668.779
6	95790	23.41	671.557
6	96184	23.51	674.335
6	96608	23.61	677.113
6	97041	23.71	679.89
6	97471	23.81	682.668
6	97889	23.91	685.446
6	98326	24.01	688.224
6	98750	24.11	691.002
6	99174	24.21	693.779
6	99607	24.31	696.557
6	100034	24.41	699.335
6	100467	24.51	702.113
6	100900	24.61	704.89
6	101324	24.71	707.668
6	101748	24.81	710.446
6	102175	24.91	713.224
6	102612	25.01	716.002
6	103045	25.11	718.779
6	103469	25.21	721.557
6	103902	25.31	724.335
6	104332	25.41	727.113
6	104765	25.51	729.891
6	105198	25.61	732.668
6	105625	25.71	735.446
6	106058	25.81	738.224
6	106488	25.91	741.002
6	106928	26.01	743.779
6	107349	26.11	746.557
6	107770	26.21	749.335
6	108197	26.31	752.113
6	108621	26.41	754.891
6	109048	26.51	757.668
6	109478	26.61	760.446
6	109902	26.71	763.224
6	110335	26.81	766.002
6	110768	26.91	768.779
6	111205	27.01	771.557
6	111632	27.11	774.335
6	112065	27.21	777.113
6	112498	27.31	779.891
6	112922	27.41	782.668
6	113355	27.51	785.446
6	113788	27.61	788.224
6	114203	27.71	791.002
6	114633	27.81	793.779
6	115066	27.91	796.557
6	115500	28.01	799.335
6	115921	28.11	802.113
6	116354	28.21	804.891
6	116784	28.31	807.668
6	117217	28.41	810.446
6	117647	28.51	813.224
6	118074	28.61	816.002
6	118507	28.71	818.779
6	118934	28.81	821.557
6	119328	28.91	824.335
6	119768	29.01	827.113
6	120198	29.11	829.891
6	120622	29.21	832.668
6	121052	29.31	835.446
6	121485	29.41	838.224
6	121918	29.51	841.002
6	122345	29.61	843.779
6	122778	29.71	846.557
6	123205	29.81	849.335
6	123629	29.91	852.113
6	124063	30.01	854.891
6	124493	30.11	857.668
6	124917	30.21	860.446
6	125341	30.31	863.224
6	125762	30.41	866.002
6	126192	30.51	868.78
6	126619	30.61	871.557
6	127052	30.71	874.335
6	127485	30.81	877.113
6	127918	30.91	879.891
6	128346	31.01	882.668
6	128773	31.11	885.446
6	129206	31.21	888.224
6	129639	31.31	891.002
6	130066	31.41	893.78
6	130487	31.51	896.557
6	130914	31.61	899.335
6	131344	31.71	902.113
6	131777	31.81	904.891
6	132201	31.91	907.668
6	132638	32.01	910.446
6	133068	32.11	913.224
6	133501	32.21	916.002
6	133925	32.31	918.78
6	134355	32.41	921.557
6	134788	32.51	924.335
6	135215	32.61	927.113
6	135639	32.71	929.891
6	136066	32.81	932.668
6	136499	32.91	935.446
6	136933	33.01	938.224
6	137366	33.11	941.002
6	137799	33.21	943.78
6	138232	33.31	946.557
6	138653	33.41	949.335
6	139086	33.51	952.113
6	139516	33.61	954.891
6	139949	33.71	957.668
6	140373	33.81	960.446
6	140794	33.91	963.224
6	141234	34.01	966.002
6	141658	34.11	968.78
6	142091	34.21	971.557
6	142524	34.31	974.335
6	142957	34.41	977.113
6	143390	34.51	979.891
6	143823	34.61	982.668
6	144250	34.71	985.446
6	144683	34.81	988.224
6	145113	34.91	991.002
6	145538	35.01	993.78
6	145965	35.11	996.557
6	146395	35.21	999.335
6	146816	35.31	1002.11
6	147243	35.41	1004.89
6	147667	35.51	1007.67
6	148079	35.61	1010.45
6	148512	35.71	1013.22
6	148945	35.81	1016
6	149369	35.91	1018.78
6	149809	36.01	1021.56
6	150239	36.11	1024.34
6	150672	36.21	1027.11
6	151099	36.31	1029.89
6	151532	36.41	1032.67
6	151924	36.51	1035.45
6	152336	36.61	1038.22
6	152757	36.71	1041
6	153142	36.81	1043.78
6	153560	36.91	1046.56
6	154000	37.01	1049.34
6	154433	37.11	1052.11
6	154866	37.21	1054.89
6	155290	37.31	1057.67
6	155711	37.41	1060.45
6	156132	37.51	1063.22
6	156553	37.61	1066
6	156980	37.71	1068.78
6	157413	37.81	1071.56
6	157840	37.91	1074.34
6	158271	38.01	1077.11
6	158662	38.11	1079.89
6	159092	38.21	1082.67
6	159525	38.31	1085.45
6	159958	38.41	1088.22
6	160382	38.51	1091
6	160809	38.61	1093.78
6	161236	38.71	1096.56
6	161663	38.81	1099.34
6	162084	38.91	1102.11
6	162524	39.01	1104.89
6	162915	39.11	1107.67
6	163348	39.21	1110.45
6	163781	39.31	1113.22
6	164202	39.41	1116
6	164626	39.51	1118.78
6	165059	39.61	1121.56
6	165486	39.71	1124.34
6	165913	39.81	1127.11
6	166340	39.91	1129.89
6	166780	40.01	1132.67
6	167204	40.11	1135.45
6	167619	40.21	1138.22
6	168049	40.31	1141
6	168443	40.41	1143.78
6	168876	40.51	1146.56
6	169303	40.61	1149.34
6	169736	40.71	1152.11
6	170166	40.81	1154.89
6	170599	40.91	1157.67
6	171033	41.01	1160.45
6	171466	41.11	1163.22
6	171893	41.21	1166
6	172287	41.31	1168.78
6	172720	41.41	1171.56
6	173153	41.51	1174.34
6	173580	41.61	1177.11
6	174007	41.71	1179.89
6	174434	41.81	1182.67
6	174861	41.91	1185.45
6	175301	42.01	1188.22
6	175734	42.11	1191
6	176155	42.21	1193.78
6	176585	42.31	1196.56
6	177018	42.41	1199.34
6	177451	42.51	1202.11
6	177845	42.61	1204.89
6	178272	42.71	1207.67
6	178693	42.81	1210.45
6	179117	42.91	1213.22
6	179548	43.01	1216
6	179978	43.11	1218.78
6	180408	43.21	1221.56
6	180838	43.31	1224.34
6	181271	43.41	1227.11
6	181695	43.51	1229.89
6	182119	43.61	1232.67
6	182534	43.71	1235.45
6	182961	43.81	1238.22
6	183385	43.91	1241
6	183810	44.01	1243.78
6	184243	44.11	1246.56
6	184676	44.21	1249.34
6	185109	44.31	1252.11
6	185542	44.41	1254.89
6	185972	44.51	1257.67
6	186402	44.61	1260.45
6	186829	44.71	1263.22
6	187259	44.81	1266
6	187680	44.91	1268.78
6	188117	45.01	1271.56
6	188541	45.11	1274.34
6	188968	45.21	1277.11
6	189401	45.31	1279.89
6	189834	45.41	1282.67
6	190261	45.51	1285.45
6	190679	45.61	1288.22
6	191106	45.71	1291
6	191533	45.81	1293.78
6	191963	45.91	1296.56
6	192397	46.01	1299.34
6	192830	46.11	1302.11
6	193257	46.21	1304.89
6	193684	46.31	1307.67
6	194114	46.41	1310.45
6	194547	46.51	1313.22
6	194980	46.61	1316
6	195407	46.71	1318.78
6	195831	46.81	1321.56
6	196255	46.91	1324.34
6	196683	47.01	1327.11
6	197116	47.11	1329.89
6	197546	47.21	1332.67
6	197979	47.31	1335.45
6	198403	47.41	1338.22
6	198830	47.51	1341
6	199263	47.61	1343.78
6	199693	47.71	1346.56
6	200120	47.81	1349.34
6	200547	47.91	1352.11
6	200981	48.01	1354.89
6	201393	48.11	1357.67
6	201826	48.21	1360.45
6	202253	48.31	1363.22
6	202674	48.41	1366
6	203092	48.51	1368.78
6	203519	48.61	1371.56
6	203952	48.71	1374.34
6	204385	48.81	1377.11
6	204809	48.91	1379.89
6	205249	49.01	1382.67
6	205679	49.11	1385.45
6	206112	49.21	1388.22
6	206503	49.31	1391
6	206933	49.41	1393.78
6	207360	49.51	1396.56
6	207793	49.61	1399.34
6	208220	49.71	1402.11
6	208650	49.81	1404.89
6	209077	49.91	1407.67
6	209503	50.01	1410.45
6	1725319	50.11	1413.22
6	3307839	50.21	1416
6	4887109	50.31	1418.78
6	6468005	50.41	1421.56
6	8066504	50.51	1424.34
6	9633374	50.61	1427.11
6	11223058	50.71	1429.89
6	12809955	50.81	1432.67
6	14388966	50.91	1435.45
6	15969661	51.01	1438.22
6	17531358	51.11	1441
6	19125717	51.21	1443.78
6	20709198	51.31	1446.56
6	22288365	51.41	1449.34
6	23868412	51.51	1452.11
6	25461875	51.61	1454.89
6	27034424	51.71	1457.67
6	28615351	51.81	1460.45
6	30201592	51.91	1463.22
6	31775266	52.01	1466
6	33367706	52.11	1468.78
6	34948376	52.21	1471.56
6	36531581	52.31	1474.34
6	38104494	52.41	1477.11
6	39692408	52.51	1479.89
6	41268740	52.61	1482.67
6	42850792	52.71	1485.45
6	44431964	52.81	1488.22
6	46016615	52.91	1491
6	47594403	53.01	1493.78
6	49172955	53.11	1496.56
6	50755240	53.21	1499.34
6	52350339	53.31	1502.11
6	53924710	53.41	1504.89
6	55511017	53.51	1507.67
6	57099345	53.61	1510.45
6	58663601	53.71	1513.22
6	60256949	53.81	1516
6	61836179	53.91	1518.78
6	63426474	54.01	1521.56
6	65014372	54.11	1524.34
6	66582109	54.21	1527.11
6	68171449	54.31	1529.89
6	69757428	54.41	1532.67
6	71337383	54.51	1535.45
6	72916926	54.61	1538.22
6	74486606	54.71	1541
6	76072872	54.81	1543.78
6	77652848	54.91	1546.56
6	79233822	55.01	1549.34
6	80820779	55.11	1552.11
6	82395883	55.21	1554.89
6	83982413	55.31	1557.67
6	85553515	55.41	1560.45
6	87135795	55.51	1563.22
6	88715326	55.61	1566
6	90295252	55.71	1568.78
6	91878581	55.81	1571.56
6	93458560	55.91	1574.34
6	95054041	56.01	1577.11
6	96625493	56.11	1579.89
6	98191969	56.21	1582.67
6	99780729	56.31	1585.45
6	101358879	56.41	1588.22
6	102927335	56.51	1591
6	104525213	56.61	1593.78
6	106106487	56.71	1596.56
6	107682184	56.81	1599.34
6	109275271	56.91	1602.11
6	110859074	57.01	1604.89
6	112434961	57.11	1607.67
6	114023661	57.21	1610.45
6	115596123	57.31	1613.22
6	117177979	57.41	1616
6	118773203	57.51	1618.78
6	120348969	57.61	1621.56
6	121927550	57.71	1624.34
6	123506618	57.81	1627.11
6	125102404	57.91	1629.89
6	126684430	58.01	1632.67
6	128256468	58.11	1635.45
6	129840238	58.21	1638.22
6	131430114	58.31	1641
6	132995802	58.41	1643.78
6	134576505	58.51	1646.56
6	136168381	58.61	1649.34
6	137747054	58.71	1652.11
6	139334137	58.81	1654.89
6	140909276	58.91	1657.67
6	142487969	59.01	1660.45
6	144066161	59.11	1663.22
6	145645437	59.21	1666
6	147231373	59.31	1668.78
6	148817130	59.41	1671.56
6	150398768	59.51	1674.34
6	151972666	59.61	1677.11
6	153558193	59.71	1679.89
6	155132811	59.81	1682.67
6	156713208	59.91	1685.45
6	158290688	60.01	1688.22
6	159871809	60.11	1691
6	161454363	60.21	1693.76
6	163045359	60.31	1696.49
6	164628676	60.41	1699.18
6	166201921	60.51	1701.83
6	167796974	60.61	1704.43
6	169367360	60.71	1706.97
6	170954430	60.81	1709.45
6	172528478	60.91	1711.87
6	174122710	61.01	1714.22
6	175697174	61.11	1716.5
6	177288162	61.21	1718.71
6	178869326	61.31	1720.84
6	180454111	61.41	1722.9
6	182034363	61.51	1724.89
6	183610137	61.61	1726.8
6	185192739	61.71	1728.64
6	186774498	61.81	1730.4
6	188357660	61.91	1732.08
6	189955215	62.01	1733.68
6	191527548	62.11	1735.2
6	193107990	62.21	1736.64
6	194701529	62.31	1738.01
6	196284639	62.41	1739.3
6	197869482	62.51	1740.5
6	199448727	62.61	1741.63
6	201032367	62.71	1742.68
6	202617776	62.81	1743.65
6	204199451	62.91	1744.53
6	205778966	63.01	1745.34
6	207349378	63.11	1746.07
6	208932168	63.21	1746.72
6	210521261	63.31	1747.29
6	212094488	63.41	1747.78
6	213683989	63.51	1748.19
6	215270414	63.61	1748.52
6	216841233	63.71	1748.77
6	218440256	63.81	1748.94
6	220010301	63.91	1749.03
6	221597479	64.01	1749.04
6	223179033	64.11	1749.04
6	224756721	64.21	1749.04
6	226336757	64.31	1749.04
6	227923378	64.41	1749.04
6	229499687	64.51	1749.04
6	231081319	64.61	1749.04
6	232667924	64.71	1749.04
6	234246806	64.81	1749.04
6	235830825	64.91	1749.04
6	237403318	65.01	1749.04
6	238984106	65.11	1749.04
6	240561986	65.21	1749.04
6	242142378	65.31	1749.04
6	243720566	65.41	1749.04
6	245315775	65.51	1749.04
6	246899272	65.61	1749.04
6	248476990	65.71	1749.04
6	250034097	65.81	1749.04
6	251646375	65.91	1749.04
6	253211085	66.01	1749.04
6	254796649	66.11	1749.04
6	256389317	66.21	1749.04
6	257953888	66.31	1749.04
6	259553077	66.41	1749.04
6	261123243	66.51	1749.04
6	262715739	66.61	1749.04
6	264297890	66.71	1749.04
6	265878116	66.81	1749.04
6	267453367	66.91	1749.04
6	269040905	67.01	1749.04
6	270621605	67.11	1749.04
6	272208100	67.21	1749.04
6	273792296	67.31	1749.04
6	275359709	67.41	1749.04
6	276940256	67.51	1749.04
6	278529973	67.61	1749.04
6	280105474	67.71	1749.04
6	281692437	67.81	1749.04
6	283281677	67.91	1749.04
6	284843180	68.01	1749.04
6	286440026	68.11	1749.04
6	288013903	68.21	1749.04
6	289592977	68.31	1749.04
6	291178457	68.41	1749.04
6	292761720	68.51	1749.04
6	294332670	68.61	1749.04
6	295918305	68.71	1749.04
6	297504336	68.81	1749.04
6	299073319	68.91	1749.04
6	300666991	69.01	1749.04
6	302236146	69.11	1749.04
6	303818616	69.21	1749.04
6	305406697	69.31	1749.04
6	306985778	69.41	1749.04
6	308556233	69.51	1749.04
6	310134564	69.61	1749.04
6	311718737	69.71	1749.04
6	313299649	69.81	1749.04
6	314884620	69.91	1749.04
5	232	1.11	27.78
5	662	1.21	27.7799
5	1096	1.31	27.7798
5	1524	1.41	27.7797
5	1958	1.51	27.7796
5	2388	1.61	27.7795
5	2821	1.71	27.7794
5	3256	1.81	27.7792
5	3689	1.91	27.7791
5	4121	2.01	27.7789
5	4551	2.11	27.7788
5	4978	2.21	27.7787
5	5411	2.31	27.7785
5	5838	2.41	27.7784
5	6271	2.51	27.7783
5	6704	2.61	27.7782
5	7137	2.71	27.7782
5	7570	2.81	27.7781
5	8003	2.91	27.778
5	8431	3.01	27.7779
5	8864	3.11	27.7779
5	9297	3.21	27.7779
5	9724	3.31	27.7778
5	10148	3.41	27.7778
5	10575	3.51	27.7778
5	10993	3.61	27.7777
5	11426	3.71	27.7777
5	11859	3.81	27.7777
5	12253	3.91	27.7777
5	12690	4.01	27.7777
5	13117	4.11	27.7777
5	13550	4.21	27.7777
5	13983	4.31	27.7777
5	14353	4.41	27.7777
5	14771	4.51	27.7777
5	15201	4.61	27.7777
5	15634	4.71	27.7777
5	16061	4.81	27.7777
5	16488	4.91	27.7777
5	16925	5.01	27.7777
5	17358	5.11	27.7777
5	17791	5.21	27.7778
5	18224	5.31	27.7778
5	18654	5.41	27.7778
5	19087	5.51	27.7778
5	19517	5.61	27.7778
5	19944	5.71	27.7778
5	20377	5.81	27.7778
5	20804	5.91	27.7778
5	21244	6.01	27.7778
5	21671	6.11	27.7778
5	22104	6.21	27.7778
5	22537	6.31	27.7778
5	22964	6.41	27.7778
5	23397	6.51	27.7778
5	23818	6.61	27.7778
5	24245	6.71	27.7778
5	24678	6.81	27.7778
5	25105	6.91	27.7778
5	25542	7.01	27.7778
5	25966	7.11	27.7778
5	26396	7.21	27.7778
5	26817	7.31	27.7778
5	27247	7.41	27.7778
5	27680	7.51	27.7778
5	28113	7.61	27.7778
5	28540	7.71	27.7778
5	28967	7.81	27.7778
5	29400	7.91	27.7778
5	29840	8.01	27.7778
5	30255	8.11	27.7778
5	30688	8.21	27.7778
5	31085	8.31	27.7778
5	31509	8.41	27.7778
5	31942	8.51	27.7778
5	32372	8.61	27.7778
5	32805	8.71	27.7778
5	33238	8.81	27.7778
5	33671	8.91	27.7778
5	34111	9.01	27.7778
5	34538	9.11	27.7778
5	34965	9.21	27.7778
5	35398	9.31	27.7778
5	35831	9.41	27.7778
5	36261	9.51	27.7778
5	36691	9.61	27.7778
5	37124	9.71	27.7778
5	37551	9.81	27.7778
5	37978	9.91	27.7778
5	38373	10.01	27.7778
5	38788	10.11	27.7778
5	39221	10.21	27.7778
5	39654	10.31	27.7778
5	40087	10.41	27.7778
5	40520	10.51	27.7778
5	40944	10.61	27.7778
5	41377	10.71	27.7778
5	41804	10.81	27.7778
5	42231	10.91	27.7778
5	42668	11.01	27.7778
5	43083	11.11	27.7778
5	43507	11.21	27.7778
5	43940	11.31	27.7778
5	44367	11.41	27.7778
5	44800	11.51	27.7778
5	45230	11.61	27.7778
5	45657	11.71	27.7778
5	46090	11.81	27.7778
5	46514	11.91	27.7778
5	46948	12.01	27.7778
5	47369	12.11	27.7778
5	47787	12.21	27.7778
5	48220	12.31	27.7778
5	48647	12.41	27.7778
5	49074	12.51	27.7778
5	49507	12.61	27.7778
5	49940	12.71	27.7778
5	50373	12.81	27.7778
5	50803	12.91	27.7778
5	51234	13.01	27.7778
5	51658	13.11	27.7778
5	52085	13.21	27.7778
5	52518	13.31	27.7778
5	52945	13.41	27.7778
5	53372	13.51	27.7778
5	53799	13.61	27.7778
5	54226	13.71	27.7778
5	54656	13.81	27.7778
5	55089	13.91	27.7778
5	55529	14.01	27.7778
5	55959	14.11	27.7778
5	56389	14.21	27.7778
5	56822	14.31	27.7778
5	57249	14.41	27.7778
5	57682	14.51	27.7778
5	58109	14.61	27.7778
5	58542	14.71	27.7778
5	58969	14.81	27.7778
5	59399	14.91	27.7778
5	59833	15.01	27.7778
5	60266	15.11	27.7778
5	60693	15.21	27.7778
5	61120	15.31	27.7778
5	61553	15.41	27.7778
5	61986	15.51	27.7778
5	62410	15.61	27.7778
5	62843	15.71	27.7778
5	63276	15.81	27.7778
5	63697	15.91	27.7778
5	64134	16.01	27.7778
5	64558	16.11	27.7778
5	64988	16.21	27.7778
5	65418	16.31	27.7778
5	65818	16.41	27.7778
5	66251	16.51	27.7778
5	66681	16.61	27.7778
5	67108	16.71	27.7778
5	67532	16.81	27.7778
5	67965	16.91	27.7778
5	68399	17.01	27.7778
5	68820	17.11	27.7778
5	69247	17.21	27.7778
5	69674	17.31	27.7778
5	70107	17.41	27.7778
5	70498	17.51	27.7778
5	70931	17.61	27.7778
5	71358	17.71	27.7778
5	71779	17.81	27.7778
5	72212	17.91	27.7778
5	72646	18.01	27.7778
5	73064	18.11	27.7778
5	73497	18.21	27.7778
5	73924	18.31	27.7778
5	74354	18.41	27.7778
5	74787	18.51	27.7778
5	75217	18.61	27.7778
5	75644	18.71	27.7778
5	76074	18.81	27.7778
5	76501	18.91	27.7778
5	76941	19.01	27.7778
5	77362	19.11	27.7778
5	77792	19.21	27.7778
5	78219	19.31	27.7778
5	78652	19.41	27.7778
5	79085	19.51	27.7778
5	79518	19.61	27.7778
5	79915	19.71	27.7778
5	80321	19.81	27.7778
5	80754	19.91	27.7778
5	81185	20.01	27.7778
5	81618	20.11	27.7778
5	82051	20.21	27.7778
5	82484	20.31	27.7778
5	82911	20.41	27.7778
5	83338	20.51	27.7778
5	83771	20.61	27.7778
5	84198	20.71	27.7778
5	84622	20.81	27.7778
5	85052	20.91	27.7778
5	85489	21.01	27.7778
5	85922	21.11	27.7778
5	86355	21.21	27.7778
5	86788	21.31	27.7778
5	87221	21.41	27.7778
5	87651	21.51	27.7778
5	88084	21.61	27.7778
5	88511	21.71	27.7778
5	88944	21.81	27.7778
5	89344	21.91	27.7778
5	89784	22.01	27.7778
5	90217	22.11	27.7778
5	90650	22.21	27.7778
5	91077	22.31	27.7778
5	91510	22.41	27.7778
5	91934	22.51	27.7778
5	92364	22.61	27.7778
5	92791	22.71	27.7778
5	93224	22.81	27.7778
5	93639	22.91	27.7778
5	94070	23.01	27.7778
5	94497	23.11	27.7778
5	94924	23.21	27.7778
5	95357	23.31	27.7778
5	95790	23.41	27.7778
5	96184	23.51	27.7778
5	96608	23.61	27.7778
5	97041	23.71	27.7778
[...]
63	120979705	57.649494788429	6
63	125710849	57.948923711419	6
63	127331832	58.051370397371	6
63	128897052	58.150748719585	6
63	136817080	58.65102583455	6
63	138369681	58.749796381029	6
63	139951395	58.850095230835	6
63	141591400	58.953540730386	6
63	147847337	59.348891431424	6
63	149449788	59.449822670983	6
63	151028357	59.550505648732	6
63	152686973	59.655962626495	6
63	154219798	59.75172046818	6
63	155800062	59.852541465263	6
63	157406683	59.953988099486	6
63	159003704	60.055260607256	6
63	160608338	60.156638187368	6
63	162089064	60.249861820842	6
63	167048836	60.562828857218	6
63	168477686	60.653978634952	6
63	170069949	60.754769778425	6
63	171589671	60.84964665202	6
63	176394638	61.154154841058	6
63	181139312	61.454223230569	6
63	182657763	61.549138634246	6
63	184299601	61.653936616208	6
63	185838666	61.751135165668	6
63	187541308	61.858704573236	6
63	189032449	61.951929726978	6
63	192232787	62.154657195906	6
63	195357710	62.352323956404	6
63	196985994	62.454767773527	6
63	198513083	62.55101121933	6
63	201682348	62.750701171635	6
63	203280946	62.852469300284	6
63	204857421	62.951974288309	6
63	208024468	63.152623887881	6
63	209536100	63.248891985647	6
63	211137780	63.349294397774	6
63	212817438	63.455839653535	6
63	214375229	63.554188785706	6
63	215944452	63.653520883461	6
63	217480720	63.749491346395	6
63	220752110	63.956751078528	6
63	222217780	64.048957008188	6
63	226971021	64.349963340264	6
63	230142463	64.550637285253	6
63	231691811	64.648932463809	6
63	233310813	64.750356618169	6
63	236441773	64.948932245637	6
63	239604110	65.149474848912	6
63	242821320	65.353263721205	6
63	249244141	65.758932663783	6
63	250662028	65.848911030807	6
63	255515941	66.156193320938	6
63	258663899	66.35489210976	6
63	260259612	66.455296530895	6
63	261776606	66.550568235003	6
63	263425585	66.654642952679	6
63	268141650	66.953937207525	6
63	271309699	67.153707616823	6
63	277643532	67.55496054813	6
63	279153513	67.649782713989	6
63	280792378	67.753705760795	6
63	282442431	67.858152643523	6
63	284005287	67.956460314848	6
63	288747487	68.256421934147	6
63	290298566	68.354763741746	6
63	291837659	68.452068394714	6
63	296639101	68.756203057975	6
63	298212152	68.855477459657	6
63	302944502	69.155130938581	6
63	304530649	69.255011691931	6
63	306048040	69.350874270939	6
63	309170898	69.548880243709	6
63	310758817	69.648882698568	6
63	312358649	69.75023666306	6
63	313956239	69.852094835645	6
87	1034	1.298210723833	6
87	1462	1.398140050729	6
87	1896	1.498173377631	6
87	2759	1.698149031483	6
87	3194	1.798182358452	6
87	3627	1.898124685468	6
87	4052	1.998184012542	6
87	4489	2.098178339688	6
87	4916	2.19815966692	6
87	5349	2.298205994254	6
87	5776	2.398139274995	6
87	6209	2.498146602577	6
87	6642	2.598127930305	6
87	7075	2.698187258197	6
87	7508	2.798181586266	6
87	7941	2.898136914528	6
87	8362	2.998196242997	6
87	8802	3.098203571691	6
87	9235	3.198210900624	6
87	9662	3.298127229809	6
87	10086	3.398147559261	6
87	10513	3.498210794032	6
87	10940	3.598118077311	6
87	11364	3.69814236028	6
87	11797	3.798201690937	6
87	12621	3.998129353231	6
87	13055	4.09821468493	6
87	13488	4.198131016998	6
87	13921	4.29821634945	6
87	15139	4.598203349164	6
87	15572	4.698119683255	6
87	16005	4.798179017781	6
87	16426	4.89813435275	6
87	16856	4.998128688176	6
87	17296	5.098123024064	6
87	17729	5.198195360424	6
87	18162	5.298124697264	6
87	18592	5.398171034595	6
87	19025	5.498191372423	6
87	19455	5.598211710755	6
87	19882	5.698219049596	6
87	20315	5.798148388959	6
87	20742	5.898194728847	6
87	21175	5.998163069268	6
87	21609	6.098144410227	6
87	22042	6.198164751732	6
87	22475	6.298159093788	6
87	22908	6.398218436399	6
87	23335	6.498212779573	6
87	23756	6.598129123313	6
87	24183	6.698149467625	6
87	24616	6.798143812514	6
87	25473	6.998210504041	6
87	25904	7.098178850687	6
87	26334	7.198186197925	6
87	26755	7.298167545762	6
87	27185	7.3981228942	6
87	27618	7.498208243242	6
87	28051	7.59816359289	6
87	28478	7.69813194315	6
87	28905	7.798182246526	6
87	29338	7.898137598016	6
87	29771	7.998144950121	6
87	30193	8.098178302846	6
87	30626	8.198172656194	6
87	31450	8.398139364704	6
87	31880	8.498133719932	6
87	32310	8.598128075787	6
87	32743	8.698148432275	6
87	33176	8.798168789394	6
87	33609	8.898202147146	6
87	34042	8.998118505532	6
87	34903	9.198159224209	6
87	35336	9.2981665845	6
87	35769	9.398134945427	6
87	36199	9.498194306992	6
87	36629	9.598149669194	6
87	37062	9.698157032032	6
87	37492	9.798216395506	6
87	37916	9.898210759617	6
87	39159	10.198119855709	6
87	39592	10.298179222366	6
87	40025	10.398173589657	6
87	40458	10.498193957579	6
87	40882	10.598214326134	6
87	41315	10.698182695321	6
87	41745	10.79817706514	6
87	42169	10.898214435586	6
87	42599	10.998117806664	6
87	43027	11.098216178368	6
87	43445	11.198197550699	6
87	43878	11.298204923655	6
87	44305	11.398134297233	6
87	44738	11.498193671432	6
87	45168	11.598214046253	6
87	45595	11.698182421691	6
87	46028	11.798176797746	6
87	46879	11.998139551699	6
87	47313	12.098211929594	6
87	48158	12.298187687209	6
87	48585	12.398117066924	6
87	49012	12.498202447242	6
87	49445	12.598183828162	6
87	49878	12.698204209679	6
87	50311	12.798133591793	6
87	50744	12.898153974501	6
87	51165	12.998200357799	6
87	51596	13.098194741687	6
87	52023	13.198150126162	6
87	52456	13.29819651122	6
87	52883	13.39821689686	6
87	53310	13.498146283079	6
87	53737	13.598179669875	6
87	54164	13.698135057244	6
87	54594	13.798116445185	6
87	55027	13.898149833694	6
87	55460	13.99815722277	6
87	55897	14.098177612406	6
87	56327	14.198185002605	6
87	56760	14.298205393362	6
87	57187	14.398186784671	6
87	57620	14.498194176533	6
87	58047	14.598175568944	6
87	58480	14.698117961901	6
87	58907	14.798116355397	6
87	59337	14.898175749438	6
87	60204	15.098203539127	6
87	60631	15.198158934769	6
87	61058	15.29815333094	6
87	61491	15.398134727637	6
87	61924	15.498142124855	6
87	62348	15.598175522592	6
87	62781	15.698156920847	6
87	63214	15.798138319615	6
87	64065	15.998218118677	6
87	64496	16.098212518964	6
87	65356	16.298136321038	6
87	66189	16.498116003256	6
87	66619	16.598123406016	6
87	67046	16.698160809247	6
87	67470	16.798116212974	6
87	67903	16.89818861718	6
87	68330	16.998131021863	6
87	68758	17.098177427019	6
87	69185	17.198158832645	6
87	69612	17.298179238735	6
87	70045	17.398134645289	6
87	70869	17.598218459736	6
87	71296	17.698212867662	6
87	71717	17.798207276039	6
87	72150	17.898149684861	6
87	72577	17.998157094129	6
87	73005	18.098125503838	6
87	73435	18.198197913986	6
87	73862	18.298127324569	6
87	74292	18.398160735583	6
87	74725	18.498129147026	6
87	75155	18.598214558894	6
87	75582	18.698117971186	6
87	76015	18.798151383897	6
87	76872	18.998205210566	6
87	77300	19.098186624519	6
87	77730	19.198194038879	6
87	78157	19.298136453642	6
87	78590	19.398117868807	6
87	79023	19.498216284372	6
87	79456	19.598210700329	6
87	80692	19.898210950516	6
87	81116	19.998153368026	6
87	81556	20.098160785917	6
87	81989	20.198194204184	6
87	82422	20.298123622824	6
87	82849	20.398144041837	6
87	83282	20.49821646122	6
87	83709	20.598184880966	6
87	84136	20.698153301076	6
87	84560	20.798212721544	6
87	84990	20.898207142369	6
87	85420	20.998162563549	6
87	85860	21.098169985081	6
87	86293	21.198138406961	6
87	86726	21.298119829187	6
87	87159	21.398205251755	6
87	87589	21.498121674664	6
87	88022	21.598116097911	6
87	88449	21.698201521489	6
87	88882	21.7982089454	6
87	89715	21.998188794183	6
87	90155	22.098157219072	6
87	90588	22.198190644281	6
87	91015	22.29819806981	6
87	91448	22.398166495653	6
87	91878	22.49813492181	6
87	92305	22.598142348274	6
87	92732	22.698123775049	6
87	93162	22.798183202128	6
87	93577	22.898190629508	6
87	94001	22.998127930061	6
87	94435	23.098191230874	6
87	94862	23.198133659146	6
87	95295	23.29814108771	6
87	95728	23.398174516562	6
87	96979	23.698161677424	6
87	97409	23.798117107409	6
87	97833	23.898137537671	6
87	98257	23.998196968208	6
87	98688	24.098126399016	6
87	99112	24.198185830094	6
87	99545	24.298219261442	6
87	99972	24.398161693053	6
87	100405	24.498143124925	6
87	100838	24.59815055706	6
87	101268	24.698131989452	6
87	101686	24.7981914221	6
87	102113	24.898120855001	6
87	102543	24.998219288154	6
87	102983	25.098135721553	6
87	103410	25.1982081552	6
87	103840	25.29818958909	6
87	104270	25.398171023224	6
87	104703	25.498152457598	6
87	105136	25.598198892208	6
87	105563	25.698167327054	6
87	105996	25.798200762133	6
87	106426	25.898117197443	6
87	106859	25.998163632984	6
87	107287	26.098171068751	6
87	107708	26.198126504743	6
87	108135	26.298159940959	6
87	108559	26.398219377396	6
87	108986	26.498148814051	6
87	109419	26.598169250921	6
87	109840	26.698189688007	6
87	110273	26.798184125307	6
87	110706	26.898178562817	6
87	111136	26.998134000534	6
87	111570	27.098141438458	6
87	112003	27.198122876586	6
87	112436	27.298117314918	6
87	113293	27.498210192182	6
87	113726	27.598178631111	6
87	114141	27.698212070235	6
87	114571	27.798167509553	6
87	115004	27.898135949062	6
87	115437	27.998169388763	6
87	115859	28.098189828649	6
87	116292	28.198132268724	6
87	116722	28.298217708981	6
87	117155	28.39813414942	6
87	117585	28.498180590041	6
87	118012	28.598214030842	6
87	118445	28.69820847182	6
87	118872	28.798124912974	6
87	119699	28.99814379579	6
87	120136	29.098151237461	6
87	120566	29.1981716793	6
87	120990	29.298127121308	6
87	121423	29.39817356348	6
87	121856	29.498168005818	6
87	122289	29.598175448316	6
87	122716	29.698195890975	6
87	123149	29.798138333795	6
87	123570	29.898184776772	6
87	123994	29.998140219905	6
87	124431	30.098134663191	6
87	124855	30.198142106631	6
87	125279	30.298188550223	6
87	125700	30.398117993964	6
87	126130	30.498190437854	6
87	126557	30.59819788189	6
87	126990	30.698153326074	6
87	127423	30.798160770402	6
87	127856	30.898194214872	6
87	128277	30.998162659485	6
87	128711	31.098196104238	6
87	129144	31.198203549129	6
87	129577	31.298210994157	6
87	130004	31.39815343932	6
87	130425	31.498121884618	6
87	130852	31.598142330048	6
87	131285	31.698123775611	6
87	131715	31.798183221306	6
87	132139	31.898138667128	6
87	132569	31.998120113079	6
87	133006	32.098218559156	6
87	133439	32.198174005358	6
87	133863	32.298155451683	6
87	134293	32.398188898131	6
87	134726	32.498209344703	6
87	135577	32.698211238203	6
87	136004	32.79812768513	6
87	136437	32.898213132173	6
87	136864	32.998142579333	6
87	137304	33.098124026607	6
87	137737	33.198196473993	6
87	138170	33.298138921491	6
87	138597	33.398198369101	6
87	139024	33.498205816821	6
87	139454	33.598174264649	6
87	139887	33.698168712585	6
87	140311	33.798124160627	6
87	140732	33.898144608772	6
87	141165	33.998178057022	6
87	141602	34.098211505376	6
87	142029	34.198218953831	6
87	142462	34.298122402388	6
87	142895	34.398207851046	6
87	143328	34.498176299801	6
87	143761	34.598157748655	6
87	144188	34.698191197605	6
87	144621	34.798133646649	6
87	145051	34.89821909579	6
87	145469	34.9982044801	6
87	145903	35.098120929426	6
87	146754	35.298135828355	6
87	147187	35.398156277955	6
87	147605	35.498124727642	6
87	148017	35.598197177419	6
87	148450	35.698204627284	6
87	148883	35.798134077235	6
87	149307	35.898167527271	6
87	149740	35.998200977391	6
87	150177	36.098117427595	6
87	150610	36.198202877882	6
87	151037	36.29815832825	6
87	151470	36.398217778699	6
87	152280	36.598119549599	6
87	152695	36.698218000287	6
87	153498	36.898145901887	6
87	153931	36.998205352806	6
87	154371	37.098212803799	6
87	154804	37.198168254867	6
87	155228	37.298201706006	6
87	155652	37.398148094209	6
87	156076	37.498129545493	6
87	156491	37.598127931787	6
87	156921	37.698122383214	6
87	157351	37.798207834709	6
87	157778	37.898150286277	6
87	158202	37.998196737912	6
87	159030	38.198163641379	6
87	159463	38.298184093215	6
87	159896	38.398126545115	6
87	160320	38.498172997079	6
87	160747	38.598154449107	6
87	161174	38.6981879012	6
87	161601	38.798169353354	6
87	162022	38.898176805572	6
87	162455	38.99818425785	6
87	163286	39.198190162582	6
87	163719	39.298184615039	6
87	164564	39.498138454996	6
87	164997	39.598171907628	6
87	165424	39.698218360317	6
87	165851	39.79821281306	6
87	166278	39.898116265861	6
87	166711	39.998188718716	6
87	167142	40.098144171625	6
87	167557	40.198129560998	6
87	167987	40.298176014013	6
87	168814	40.4981819202	6
87	169241	40.598124373372	6
87	169674	40.698209826595	6
87	170104	40.79816527987	6
87	170537	40.898159733193	6
87	170964	40.998167186566	6
87	171404	41.098200639987	6
87	171837	41.198143093456	6
87	172658	41.398201000535	6
87	173091	41.498208454145	6
87	173518	41.598137907802	6
87	173945	41.698158361507	6
87	174372	41.798191815255	6
87	174799	41.89816420384	6
87	175232	41.998145657676	6
87	175672	42.098205111558	6
87	176523	42.298129019448	6
87	176956	42.398149473458	6
87	177389	42.498130927508	6
87	178210	42.698175705187	6
87	178631	42.798135159357	6
87	179061	42.89819461357	6
87	179479	42.998137067823	6
87	179916	43.098144522114	6
87	180349	43.198164976444	6
87	180776	43.298185430814	6
87	181209	43.398127885218	6
87	181633	43.498200339661	6
87	182478	43.698219248657	6
87	182899	43.79812270321	6
87	183323	43.898130157798	6
87	183741	43.998163612421	6
87	184181	44.098132067079	6
87	184614	44.198217521773	6
87	185047	44.2982119765	6
87	185480	44.398180431261	6
87	185913	44.498122886056	6
87	186340	44.598182340885	6
87	187197	44.798210250637	6
87	187618	44.898178705561	6
87	188048	44.998186160517	6
87	188479	45.098210615504	6
87	189339	45.29813452557	6
87	189772	45.398167980648	6
87	190199	45.498162435757	6
87	190617	45.598143890896	6
87	191044	45.698190346064	6
87	191471	45.79819780126	6
87	191901	45.898192256485	6
87	192328	45.998160711738	6
87	192768	46.098181167018	6
87	193195	46.198123622326	6
87	193622	46.298131077661	6
87	194052	46.398216533023	6
87	194485	46.498145988412	6
87	194918	46.598192443826	6
87	195345	46.698212899268	6
87	196193	46.898162810229	6
87	196614	46.998183265748	6
87	197054	47.09815172129	6
87	197484	47.198133176858	6
87	197917	47.298153632452	6
87	198341	47.398122088067	6
87	198768	47.498159413056	6
87	199201	47.59814086872	6
87	199631	47.698187324408	6
87	200058	47.798181780117	6
87	200485	47.89815023585	6
87	200912	47.998170691605	6
87	201337	48.098204147384	6
87	201764	48.198146603183	6
87	202618	48.398148514846	6
87	203030	48.49811697071	6
87	203457	48.598128295926	6
87	203890	48.698148751831	6
87	204323	48.798182207756	6
87	204747	48.898176663701	6
87	205180	48.998132119666	6
87	205620	49.098204575653	6
87	206050	49.198160031658	6
87	206871	49.398152813051	6
87	207298	49.498199269114	6
87	207731	49.598193725197	6
87	208158	49.698136181298	6
87	208591	49.798182637417	6
87	209015	49.898164093553	6
87	25343520	51.602675078126	6
87	34812415	52.201334715514	6
87	36361219	52.299620113392	6
87	42785725	52.705657597814	6
87	47453705	53.000603103088	6
87	50591227	53.199793463934	6
87	58506200	53.699562674686	6
87	61676162	53.899336894952	6
87	63312077	54.002813000896	6
87	75980960	54.803613986203	6
87	80666074	55.100602049212	6
87	110683798	56.999278260043	6
87	115412840	57.298425386353	6
87	118700762	57.504892311247	6
87	125054340	57.90646900746	6
87	137697534	58.706792556675	6
87	143960923	59.102605747905	6
87	145491617	59.200388278495	6
87	167713307	60.605283049168	6
87	178783006	61.304322910582	6
87	181940871	61.504389595833	6
87	186659856	61.801901641485	6
87	194495532	62.29802668359	6
87	199287951	62.600121811649	6
87	204003815	62.898003748601	6
87	210393426	63.302166336508	6
87	213501294	63.498866121159	6
87	227846806	64.404768047956	6
87	232528075	64.701183079373	6
87	245161645	65.500786283279	6
87	246815224	65.60528334606	6
87	249880477	65.798821293048	6
87	251525961	65.902754127079	6
87	262592187	66.602470584926	6
87	264224230	66.704850851482	6
87	273622656	67.299766409398	6
87	275256163	67.402844877048	6
87	283118111	67.901135081057	6
87	286255134	68.098806369037	6
87	289428867	68.299443244819	6
87	291060932	68.402457046473	6
87	292667129	68.503873970939	6
87	294163585	68.599006535456	6
87	295796537	68.702928426759	6
87	300518891	69.000956060866	6
87	311611812	69.703580317243	6
87	314738636	69.90127600242	6
112	4060	2	0
112	8370	3	0
112	12629	4	0
112	16864	5	0
112	21183	6	0
112	25481	7	0
112	29779	8	0
112	34050	9	0
112	38312	10	0
112	42607	11	0
112	46887	12	0
112	51173	13	0
112	55468	14	0
112	59772	15	0
112	64073	16	0
112	68338	17	0
112	72585	18	0
112	76880	19	0
112	81124	20	0
112	85428	21	0
112	89723	22	0
112	94009	23	0
112	98265	24	0
112	102551	25	0
112	106867	26	0
112	111144	27	0
112	115445	28	0
112	119707	29	0
112	124002	30	0
112	128285	31	0
112	132577	32	0
112	136872	33	0
112	141173	34	0
112	145477	35	0
112	149748	36	0
112	153939	37	0
112	158210	38	0
112	162463	39	0
112	166719	40	0
112	170972	41	0
112	175240	42	0
112	179487	43	0
112	183749	44	0
112	188056	45	0
112	192336	46	0
112	196622	47	0
112	200920	48	0
112	205188	49	0
112	209442	50	0
112	15808446	51	0
112	31617212	52	0
112	47437712	53	0
112	63259166	54	0
112	79080891	55	0
112	94886239	56	0
112	110699322	57	0
112	126518062	58	0
112	142330731	59	0
112	158118246	60	0
112	173951314	61	0
112	189796476	62	0
112	205612550	63	0
112	221438396	64	0
112	237249535	65	0
112	253056285	66	0
112	268883174	67	0
112	284706116	68	0
112	300503206	69	0
112	316291062	70	0
111	4060	2	0.030761
111	8370	3	0.03473
111	12629	4	0.034234
111	16864	5	0.03365819125
111	21183	6	0.03473
111	25481	7	0.034234
111	29779	8	0.03473
111	34050	9	0.034234
111	38312	10	0.033738
111	42607	11	0.032746
111	46887	12	0.034234
111	51173	13	0.033738
111	55468	14	0.03473
111	59772	15	0.033738
111	64073	16	0.034234
111	68338	17	0.033671235459
111	72585	18	0.032746
111	76880	19	0.033738
111	81124	20	0.034650243353
111	85428	21	0.033738
111	89723	22	0.033738
111	94009	23	0.03473
111	98265	24	0.034167249781
111	102551	25	0.03473
111	106867	26	0.03473
111	111144	27	0.034234
111	115445	28	0.03473
111	119707	29	0.033738
111	124002	30	0.034234
111	128285	31	0.034234
111	132577	32	0.033738
111	136872	33	0.034234
111	141173	34	0.033738
111	145477	35	0.034234
111	149748	36	0.034234
111	153939	37	0.033162259215
111	158210	38	0.034234
111	162463	39	0.034154259565
111	166719	40	0.034154259798
111	170972	41	0.03466326006
111	175240	42	0.034234
111	179487	43	0.034154260418
111	183749	44	0.033738
111	188056	45	0.034234
111	192336	46	0.033738
111	196622	47	0.034234
111	200920	48	0.03473
111	205188	49	0.033242
111	209442	50	0.033242
111	15808446	51	0.90971528592
111	31617212	52	0.914804650705
111	47437712	53	0.910004953017
111	63259166	54	0.91201586232
111	79080891	55	0.91912208612
111	94886239	56	0.91758797482
111	110699322	57	0.915894519406
111	126518062	58	0.915144381978
111	142330731	59	0.914261760009
111	158118246	60	0.919413401791
111	173951314	61	0.917401757938
111	189796476	62	0.913356916637
111	205612550	63	0.912325702975
111	221438396	64	0.911919880125
111	237249535	65	0.919112038061
111	253056285	66	0.915880681485
111	268883174	67	0.916074769759
111	284706116	68	0.913704702795
111	300503206	69	0.914490753233
111	316291062	70	0.918203668657
110	4060	2	6
110	8370	3	6
110	12629	4	6
110	16864	5	6
110	21183	6	6
110	25481	7	6
110	29779	8	6
110	34050	9	6
110	38312	10	6
110	42607	11	6
110	46887	12	6
110	51173	13	6
110	55468	14	6
110	59772	15	6
110	64073	16	6
110	68338	17	6
110	72585	18	6
110	76880	19	6
110	81124	20	6
110	85428	21	6
110	89723	22	6
110	94009	23	6
110	98265	24	6
110	102551	25	6
110	106867	26	6
110	111144	27	6
110	115445	28	6
110	119707	29	6
110	124002	30	6
110	128285	31	6
110	132577	32	6
110	136872	33	6
110	141173	34	6
110	145477	35	6
110	149748	36	6
110	153939	37	6
110	158210	38	6
110	162463	39	6
110	166719	40	6
110	170972	41	6
110	175240	42	6
110	179487	43	6
110	183749	44	6
110	188056	45	6
110	192336	46	6
110	196622	47	6
110	200920	48	6
110	205188	49	6
110	209442	50	6
110	15808446	51	6
110	31617212	52	6
110	47437712	53	6
110	63259166	54	6
110	79080891	55	6
110	94886239	56	6
110	110699322	57	6
110	126518062	58	6
110	142330731	59	6
110	158118246	60	6
110	173951314	61	6
110	189796476	62	6
110	205612550	63	6
110	221438396	64	6
110	237249535	65	6
110	253056285	66	6
110	268883174	67	6
110	284706116	68	6
110	300503206	69	6
110	316291062	70	6

